Job <13965> is submitted to default queue <normal>.
/*---------------------------------------------------------------------------*\
| =========                 |                                                 |
| \\      /  F ield         | OpenFOAM: The Open Source CFD Toolbox           |
|  \\    /   O peration     | Version:  2.2.x                                 |
|   \\  /    A nd           | Web:      www.OpenFOAM.org                      |
|    \\/     M anipulation  |                                                 |
\*---------------------------------------------------------------------------*/
Build  : 2.2.x-1ef4d132e582
Exec   : execFlowFunctionObjectsforHumidRad -latestTime
Date   : Dec 13 2017
Time   : 15:58:11
Host   : "queen01"
PID    : 6357
Case   : /home/tyou/OpenFOAM/tyou-2.2.x/run/test13b
nProcs : 1
sigFpe : Enabling floating point exception trapping (FOAM_SIGFPE).
fileModificationChecking : Monitoring run-time modified files using timeStampMaster
allowSystemOperations : Disallowing user-supplied system call operations

// * * * * * * * * * * * * * * * * * * * * * * * * * * * * * * * * * * * * * //
Create time

Create mesh for time = 15

cellSource back_left_T:cellZone(back_left_T):
    total cells  = 419
    total volume = 0.00640775



cellSource back_right_T:cellZone(back_right_T):
    total cells  = 419
    total volume = 0.00640775



cellSource chest_left_T:cellZone(chest_left_T):
    total cells  = 883
    total volume = 0.0138002



cellSource chest_right_T:cellZone(chest_right_T):
    total cells  = 826
    total volume = 0.012908



cellSource waist_left_back_T:cellZone(waist_left_back_T):
    total cells  = 298
    total volume = 0.00456347



cellSource waist_left_front_T:cellZone(waist_left_front_T):
    total cells  = 355
    total volume = 0.00526065



cellSource waist_right_back_T:cellZone(waist_right_back_T):
    total cells  = 263
    total volume = 0.00401842



cellSource waist_right_front_T:cellZone(waist_right_front_T):
    total cells  = 327
    total volume = 0.00482431



cellSource femur_left_back_T:cellZone(femur_left_back_T):
    total cells  = 619
    total volume = 0.00977313



cellSource femur_left_front_T:cellZone(femur_left_front_T):
    total cells  = 521
    total volume = 0.0080937



cellSource femur_right_back_T:cellZone(femur_right_back_T):
    total cells  = 540
    total volume = 0.00850484



cellSource femur_right_front_T:cellZone(femur_right_front_T):
    total cells  = 453
    total volume = 0.00696515



cellSource lowerleg_left_back_T:cellZone(lowerleg_left_back_T):
    total cells  = 469
    total volume = 0.00746579



cellSource lowerleg_left_front_T:cellZone(lowerleg_left_front_T):
    total cells  = 192
    total volume = 0.00297524



cellSource lowerleg_right_back_T:cellZone(lowerleg_right_back_T):
    total cells  = 228
    total volume = 0.00362306



cellSource lowerleg_right_front_T:cellZone(lowerleg_right_front_T):
    total cells  = 633
    total volume = 0.010036



cellSource upperarm_left_back_T:cellZone(upperarm_left_back_T):
    total cells  = 432
    total volume = 0.00689191



cellSource upperarm_left_front_T:cellZone(upperarm_left_front_T):
    total cells  = 576
    total volume = 0.00910935



cellSource upperarm_right_back_T:cellZone(upperarm_right_back_T):
    total cells  = 485
    total volume = 0.00766941



cellSource upperarm_right_front_T:cellZone(upperarm_right_front_T):
    total cells  = 286
    total volume = 0.00443021



cellSource forearm_left_back_T:cellZone(forearm_left_back_T):
    total cells  = 202
    total volume = 0.00301647



cellSource forearm_left_front_T:cellZone(forearm_left_front_T):
    total cells  = 52
    total volume = 0.000695687



cellSource forearm_right_back_T:cellZone(forearm_right_back_T):
    total cells  = 152
    total volume = 0.00225832



cellSource forearm_right_front_T:cellZone(forearm_right_front_T):
    total cells  = 152
    total volume = 0.00226063



cellSource foot_left_T:cellZone(foot_left_T):
    total cells  = 169
    total volume = 0.00267986



cellSource foot_right_T:cellZone(foot_right_T):
    total cells  = 119
    total volume = 0.00181311



cellSource hand_left_T:cellZone(hand_left_T):
    total cells  = 105
    total volume = 0.0015562



cellSource hand_right_T:cellZone(hand_right_T):
    total cells  = 105
    total volume = 0.00155538



cellSource neck_back_T:cellZone(neck_back_T):
    total cells  = 61
    total volume = 0.000874303



cellSource neck_front_T:cellZone(neck_front_T):
    total cells  = 49
    total volume = 0.00074802



cellSource face_T:cellZone(face_T):
    total cells  = 209
    total volume = 0.00323678



cellSource head_T:cellZone(head_T):
    total cells  = 391
    total volume = 0.00595878



faceSource back_left_O:
    total faces  = 96
    total area   = 0.0596702


faceSource back_right_O:
    total faces  = 106
    total area   = 0.0650963


faceSource chest_left_O:
    total faces  = 115
    total area   = 0.0726877


faceSource chest_right_O:
    total faces  = 104
    total area   = 0.0644426


faceSource waist_left_back_O:
    total faces  = 59
    total area   = 0.0383925


faceSource waist_left_front_O:
    total faces  = 56
    total area   = 0.0337796


faceSource waist_right_back_O:
    total faces  = 59
    total area   = 0.0384313


faceSource waist_right_front_O:
    total faces  = 54
    total area   = 0.0339853


faceSource femur_left_back_O:
    total faces  = 134
    total area   = 0.0818225


faceSource femur_left_front_O:
    total faces  = 140
    total area   = 0.0844578


faceSource femur_right_back_O:
    total faces  = 130
    total area   = 0.0806126


faceSource femur_right_front_O:
    total faces  = 141
    total area   = 0.0847977


faceSource lowerleg_left_back_O:
    total faces  = 101
    total area   = 0.0584235


faceSource lowerleg_left_front_O:
    total faces  = 97
    total area   = 0.0564815


faceSource lowerleg_right_back_O:
    total faces  = 91
    total area   = 0.0516206


faceSource lowerleg_right_front_O:
    total faces  = 111
    total area   = 0.0648007


faceSource upperarm_left_back_O:
    total faces  = 64
    total area   = 0.0375771


faceSource upperarm_left_front_O:
    total faces  = 53
    total area   = 0.0303102


faceSource upperarm_right_back_O:
    total faces  = 63
    total area   = 0.0368323


faceSource upperarm_right_front_O:
    total faces  = 54
    total area   = 0.0310832


faceSource forearm_left_back_O:
    total faces  = 52
    total area   = 0.0272596


faceSource forearm_left_front_O:
    total faces  = 39
    total area   = 0.0209756


faceSource forearm_right_back_O:
    total faces  = 49
    total area   = 0.0257124


faceSource forearm_right_front_O:
    total faces  = 41
    total area   = 0.0217399


faceSource foot_left_O:
    total faces  = 75
    total area   = 0.0388997


faceSource foot_right_O:
    total faces  = 78
    total area   = 0.0394712


faceSource hand_left_O:
    total faces  = 61
    total area   = 0.0259505


faceSource hand_right_O:
    total faces  = 60
    total area   = 0.0259491


faceSource neck_back_O:
    total faces  = 14
    total area   = 0.00812917


faceSource neck_front_O:
    total faces  = 20
    total area   = 0.00918914


faceSource face_O:
    total faces  = 53
    total area   = 0.0263509


faceSource head_O:
    total faces  = 120
    total area   = 0.0689807


faceSource floor:
    total faces  = 1600
    total area   = 16


faceSource ceiling:
    total faces  = 1600
    total area   = 16


faceSource north:
    total faces  = 771
    total area   = 7.71


faceSource south:
    total faces  = 960
    total area   = 9.6


faceSource east:
    total faces  = 960
    total area   = 9.6


faceSource west:
    total faces  = 690
    total area   = 6.9


cellSource w_internal_T:cellZone(w_internal_T):
    total cells  = 64441
    total volume = 36.1515



Time = 15
    Reading phi
    Reading U
    Reading p
    Reading X
    Reading Qr
Selecting thermodynamics package 
{
    type            heRhoThermo;
    mixture         pureMixture;
    transport       const;
    thermo          hConst;
    equationOfState perfectGas;
    specie          specie;
    energy          sensibleEnthalpy;
}

Selecting RAS turbulence model RNGkEpsilon
RNGkEpsilonCoeffs
{
    Cmu             0.0845;
    C1              1.42;
    C2              1.68;
    C3              -0.33;
    sigmak          0.71942;
    sigmaEps        0.71942;
    Prt             1;
    eta0            4.38;
    beta            0.012;
}

cellSource back_left_T output:
    volAverage(back_left_T) for T = 299.729
    volAverage(back_left_T) for X = 0.0102957
    volAverage(back_left_T) for p = 100041
    volAverage(back_left_T) for Qr = 0

cellSource back_right_T output:
    volAverage(back_right_T) for T = 299.433
    volAverage(back_right_T) for X = 0.0108846
    volAverage(back_right_T) for p = 100042
    volAverage(back_right_T) for Qr = 0

cellSource chest_left_T output:
    volAverage(chest_left_T) for T = 299.654
    volAverage(chest_left_T) for X = 0.0107492
    volAverage(chest_left_T) for p = 100040
    volAverage(chest_left_T) for Qr = 0

cellSource chest_right_T output:
    volAverage(chest_right_T) for T = 299.341
    volAverage(chest_right_T) for X = 0.011307
    volAverage(chest_right_T) for p = 100040
    volAverage(chest_right_T) for Qr = 0

cellSource waist_left_back_T output:
    volAverage(waist_left_back_T) for T = 300
    volAverage(waist_left_back_T) for X = 0.00993939
    volAverage(waist_left_back_T) for p = 100042
    volAverage(waist_left_back_T) for Qr = 0

cellSource waist_left_front_T output:
    volAverage(waist_left_front_T) for T = 300.223
    volAverage(waist_left_front_T) for X = 0.0100119
    volAverage(waist_left_front_T) for p = 100040
    volAverage(waist_left_front_T) for Qr = 0

cellSource waist_right_back_T output:
    volAverage(waist_right_back_T) for T = 299.666
    volAverage(waist_right_back_T) for X = 0.0105966
    volAverage(waist_right_back_T) for p = 100042
    volAverage(waist_right_back_T) for Qr = 0

cellSource waist_right_front_T output:
    volAverage(waist_right_front_T) for T = 299.545
    volAverage(waist_right_front_T) for X = 0.0110882
    volAverage(waist_right_front_T) for p = 100040
    volAverage(waist_right_front_T) for Qr = 0

cellSource femur_left_back_T output:
    volAverage(femur_left_back_T) for T = 300.277
    volAverage(femur_left_back_T) for X = 0.00965211
    volAverage(femur_left_back_T) for p = 100042
    volAverage(femur_left_back_T) for Qr = 0

cellSource femur_left_front_T output:
    volAverage(femur_left_front_T) for T = 300.925
    volAverage(femur_left_front_T) for X = 0.00917121
    volAverage(femur_left_front_T) for p = 100040
    volAverage(femur_left_front_T) for Qr = 0

cellSource femur_right_back_T output:
    volAverage(femur_right_back_T) for T = 299.789
    volAverage(femur_right_back_T) for X = 0.0105699
    volAverage(femur_right_back_T) for p = 100042
    volAverage(femur_right_back_T) for Qr = 0

cellSource femur_right_front_T output:
    volAverage(femur_right_front_T) for T = 300.014
    volAverage(femur_right_front_T) for X = 0.0104995
    volAverage(femur_right_front_T) for p = 100040
    volAverage(femur_right_front_T) for Qr = 0

cellSource lowerleg_left_back_T output:
    volAverage(lowerleg_left_back_T) for T = 300.164
    volAverage(lowerleg_left_back_T) for X = 0.010054
    volAverage(lowerleg_left_back_T) for p = 100041
    volAverage(lowerleg_left_back_T) for Qr = 0

cellSource lowerleg_left_front_T output:
    volAverage(lowerleg_left_front_T) for T = 300.641
    volAverage(lowerleg_left_front_T) for X = 0.00977372
    volAverage(lowerleg_left_front_T) for p = 100041
    volAverage(lowerleg_left_front_T) for Qr = 0

cellSource lowerleg_right_back_T output:
    volAverage(lowerleg_right_back_T) for T = 299.937
    volAverage(lowerleg_right_back_T) for X = 0.010617
    volAverage(lowerleg_right_back_T) for p = 100042
    volAverage(lowerleg_right_back_T) for Qr = 0

cellSource lowerleg_right_front_T output:
    volAverage(lowerleg_right_front_T) for T = 300.046
    volAverage(lowerleg_right_front_T) for X = 0.0105927
    volAverage(lowerleg_right_front_T) for p = 100041
    volAverage(lowerleg_right_front_T) for Qr = 0

cellSource upperarm_left_back_T output:
    volAverage(upperarm_left_back_T) for T = 299.248
    volAverage(upperarm_left_back_T) for X = 0.0110506
    volAverage(upperarm_left_back_T) for p = 100042
    volAverage(upperarm_left_back_T) for Qr = 0

cellSource upperarm_left_front_T output:
    volAverage(upperarm_left_front_T) for T = 299.311
    volAverage(upperarm_left_front_T) for X = 0.0111627
    volAverage(upperarm_left_front_T) for p = 100040
    volAverage(upperarm_left_front_T) for Qr = 0

cellSource upperarm_right_back_T output:
    volAverage(upperarm_right_back_T) for T = 299.23
    volAverage(upperarm_right_back_T) for X = 0.011074
    volAverage(upperarm_right_back_T) for p = 100042
    volAverage(upperarm_right_back_T) for Qr = 0

cellSource upperarm_right_front_T output:
    volAverage(upperarm_right_front_T) for T = 299.308
    volAverage(upperarm_right_front_T) for X = 0.0112026
    volAverage(upperarm_right_front_T) for p = 100041
    volAverage(upperarm_right_front_T) for Qr = 0

cellSource forearm_left_back_T output:
    volAverage(forearm_left_back_T) for T = 300.014
    volAverage(forearm_left_back_T) for X = 0.00971735
    volAverage(forearm_left_back_T) for p = 100042
    volAverage(forearm_left_back_T) for Qr = 0

cellSource forearm_left_front_T output:
    volAverage(forearm_left_front_T) for T = 300.729
    volAverage(forearm_left_front_T) for X = 0.00894973
    volAverage(forearm_left_front_T) for p = 100041
    volAverage(forearm_left_front_T) for Qr = 0

cellSource forearm_right_back_T output:
    volAverage(forearm_right_back_T) for T = 299.322
    volAverage(forearm_right_back_T) for X = 0.0112257
    volAverage(forearm_right_back_T) for p = 100042
    volAverage(forearm_right_back_T) for Qr = 0

cellSource forearm_right_front_T output:
    volAverage(forearm_right_front_T) for T = 299.334
    volAverage(forearm_right_front_T) for X = 0.0112743
    volAverage(forearm_right_front_T) for p = 100041
    volAverage(forearm_right_front_T) for Qr = 0

cellSource foot_left_T output:
    volAverage(foot_left_T) for T = 300.567
    volAverage(foot_left_T) for X = 0.0109541
    volAverage(foot_left_T) for p = 100040
    volAverage(foot_left_T) for Qr = 0

cellSource foot_right_T output:
    volAverage(foot_right_T) for T = 300.464
    volAverage(foot_right_T) for X = 0.0106532
    volAverage(foot_right_T) for p = 100040
    volAverage(foot_right_T) for Qr = 0

cellSource hand_left_T output:
    volAverage(hand_left_T) for T = 300.94
    volAverage(hand_left_T) for X = 0.00865075
    volAverage(hand_left_T) for p = 100041
    volAverage(hand_left_T) for Qr = 0

cellSource hand_right_T output:
    volAverage(hand_right_T) for T = 299.473
    volAverage(hand_right_T) for X = 0.0112297
    volAverage(hand_right_T) for p = 100041
    volAverage(hand_right_T) for Qr = 0

cellSource neck_back_T output:
    volAverage(neck_back_T) for T = 299.653
    volAverage(neck_back_T) for X = 0.01047
    volAverage(neck_back_T) for p = 100041
    volAverage(neck_back_T) for Qr = 0

cellSource neck_front_T output:
    volAverage(neck_front_T) for T = 299.649
    volAverage(neck_front_T) for X = 0.0105774
    volAverage(neck_front_T) for p = 100040
    volAverage(neck_front_T) for Qr = 0

cellSource face_T output:
    volAverage(face_T) for T = 299.346
    volAverage(face_T) for X = 0.0111133
    volAverage(face_T) for p = 100040
    volAverage(face_T) for Qr = 0

cellSource head_T output:
    volAverage(head_T) for T = 299.371
    volAverage(head_T) for X = 0.010973
    volAverage(head_T) for p = 100040
    volAverage(head_T) for Qr = 0

faceSource back_left_O output:
    areaAverage(back_left_Object01) for T = 305.469
    areaAverage(back_left_Object01) for X = 0.000170208
    areaAverage(back_left_Object01) for p = 100042
    areaAverage(back_left_Object01) for Qr = -13.5527

faceSource back_right_O output:
    areaAverage(back_right_Object01) for T = 304.713
    areaAverage(back_right_Object01) for X = 0.000170207
    areaAverage(back_right_Object01) for p = 100042
    areaAverage(back_right_Object01) for Qr = -10.071

faceSource chest_left_O output:
    areaAverage(chest_left_Object01) for T = 305.519
    areaAverage(chest_left_Object01) for X = 0.000170206
    areaAverage(chest_left_Object01) for p = 100040
    areaAverage(chest_left_Object01) for Qr = -22.7539

faceSource chest_right_O output:
    areaAverage(chest_right_Object01) for T = 303.907
    areaAverage(chest_right_Object01) for X = 0.000170205
    areaAverage(chest_right_Object01) for p = 100040
    areaAverage(chest_right_Object01) for Qr = -16.5192

faceSource waist_left_back_O output:
    areaAverage(waist_left_back_Object01) for T = 306.126
    areaAverage(waist_left_back_Object01) for X = 0.000170212
    areaAverage(waist_left_back_Object01) for p = 100042
    areaAverage(waist_left_back_Object01) for Qr = -15.3406

faceSource waist_left_front_O output:
    areaAverage(waist_left_front_Object01) for T = 305.924
    areaAverage(waist_left_front_Object01) for X = 0.000170011
    areaAverage(waist_left_front_Object01) for p = 100040
    areaAverage(waist_left_front_Object01) for Qr = -24.9057

faceSource waist_right_back_O output:
    areaAverage(waist_right_back_Object01) for T = 305.289
    areaAverage(waist_right_back_Object01) for X = 0.000170211
    areaAverage(waist_right_back_Object01) for p = 100042
    areaAverage(waist_right_back_Object01) for Qr = -11.427

faceSource waist_right_front_O output:
    areaAverage(waist_right_front_Object01) for T = 304.213
    areaAverage(waist_right_front_Object01) for X = 0.000170209
    areaAverage(waist_right_front_Object01) for p = 100040
    areaAverage(waist_right_front_Object01) for Qr = -17.3733

faceSource femur_left_back_O output:
    areaAverage(femur_left_back_Object01) for T = 307.874
    areaAverage(femur_left_back_Object01) for X = 0.000170229
    areaAverage(femur_left_back_Object01) for p = 100042
    areaAverage(femur_left_back_Object01) for Qr = -23.8149

faceSource femur_left_front_O output:
    areaAverage(femur_left_front_Object01) for T = 307.821
    areaAverage(femur_left_front_Object01) for X = 0.000170228
    areaAverage(femur_left_front_Object01) for p = 100040
    areaAverage(femur_left_front_Object01) for Qr = -32.2002

faceSource femur_right_back_O output:
    areaAverage(femur_right_back_Object01) for T = 305.778
    areaAverage(femur_right_back_Object01) for X = 0.000170224
    areaAverage(femur_right_back_Object01) for p = 100042
    areaAverage(femur_right_back_Object01) for Qr = -13.3964

faceSource femur_right_front_O output:
    areaAverage(femur_right_front_Object01) for T = 305.239
    areaAverage(femur_right_front_Object01) for X = 0.000170223
    areaAverage(femur_right_front_Object01) for p = 100040
    areaAverage(femur_right_front_Object01) for Qr = -19.8802

faceSource lowerleg_left_back_O output:
    areaAverage(lowerleg_left_back_Object01) for T = 307.171
    areaAverage(lowerleg_left_back_Object01) for X = 0.000170231
    areaAverage(lowerleg_left_back_Object01) for p = 100041
    areaAverage(lowerleg_left_back_Object01) for Qr = -23.8195

faceSource lowerleg_left_front_O output:
    areaAverage(lowerleg_left_front_Object01) for T = 305.76
    areaAverage(lowerleg_left_front_Object01) for X = 0.000170031
    areaAverage(lowerleg_left_front_Object01) for p = 100041
    areaAverage(lowerleg_left_front_Object01) for Qr = -24.1621

faceSource lowerleg_right_back_O output:
    areaAverage(lowerleg_right_back_Object01) for T = 304.968
    areaAverage(lowerleg_right_back_Object01) for X = 0.000170226
    areaAverage(lowerleg_right_back_Object01) for p = 100041
    areaAverage(lowerleg_right_back_Object01) for Qr = -11.6197

faceSource lowerleg_right_front_O output:
    areaAverage(lowerleg_right_front_Object01) for T = 306.121
    areaAverage(lowerleg_right_front_Object01) for X = 0.000170225
    areaAverage(lowerleg_right_front_Object01) for p = 100041
    areaAverage(lowerleg_right_front_Object01) for Qr = -25.6307

faceSource upperarm_left_back_O output:
    areaAverage(upperarm_left_back_Object01) for T = 306.311
    areaAverage(upperarm_left_back_Object01) for X = 0.000170219
    areaAverage(upperarm_left_back_Object01) for p = 100041
    areaAverage(upperarm_left_back_Object01) for Qr = -19.7056

faceSource upperarm_left_front_O output:
    areaAverage(upperarm_left_front_Object01) for T = 306.497
    areaAverage(upperarm_left_front_Object01) for X = 0.000170218
    areaAverage(upperarm_left_front_Object01) for p = 100041
    areaAverage(upperarm_left_front_Object01) for Qr = -24.4676

faceSource upperarm_right_back_O output:
    areaAverage(upperarm_right_back_Object01) for T = 304.125
    areaAverage(upperarm_right_back_Object01) for X = 0.000170214
    areaAverage(upperarm_right_back_Object01) for p = 100041
    areaAverage(upperarm_right_back_Object01) for Qr = -9.07229

faceSource upperarm_right_front_O output:
    areaAverage(upperarm_right_front_Object01) for T = 303.861
    areaAverage(upperarm_right_front_Object01) for X = 0.000170213
    areaAverage(upperarm_right_front_Object01) for p = 100041
    areaAverage(upperarm_right_front_Object01) for Qr = -13.3974

faceSource forearm_left_back_O output:
    areaAverage(forearm_left_back_Object01) for T = 308.003
    areaAverage(forearm_left_back_Object01) for X = 0.000170221
    areaAverage(forearm_left_back_Object01) for p = 100041
    areaAverage(forearm_left_back_Object01) for Qr = -27.974

faceSource forearm_left_front_O output:
    areaAverage(forearm_left_front_Object01) for T = 309.043
    areaAverage(forearm_left_front_Object01) for X = 0.000170021
    areaAverage(forearm_left_front_Object01) for p = 100041
    areaAverage(forearm_left_front_Object01) for Qr = -36.3796

faceSource forearm_right_back_O output:
    areaAverage(forearm_right_back_Object01) for T = 304.419
    areaAverage(forearm_right_back_Object01) for X = 0.000170216
    areaAverage(forearm_right_back_Object01) for p = 100041
    areaAverage(forearm_right_back_Object01) for Qr = -10.4563

faceSource forearm_right_front_O output:
    areaAverage(forearm_right_front_Object01) for T = 304.467
    areaAverage(forearm_right_front_Object01) for X = 0.000170215
    areaAverage(forearm_right_front_Object01) for p = 100041
    areaAverage(forearm_right_front_Object01) for Qr = -15.2888

faceSource foot_left_O output:
    areaAverage(foot_left_Object01) for T = 305.382
    areaAverage(foot_left_Object01) for X = 0.000170232
    areaAverage(foot_left_Object01) for p = 100040
    areaAverage(foot_left_Object01) for Qr = -21.0879

faceSource foot_right_O output:
    areaAverage(foot_right_Object01) for T = 306.254
    areaAverage(foot_right_Object01) for X = 0.000170227
    areaAverage(foot_right_Object01) for p = 100040
    areaAverage(foot_right_Object01) for Qr = -26.029

faceSource hand_left_O output:
    areaAverage(hand_left_Object01) for T = 309.764
    areaAverage(hand_left_Object01) for X = 0.000170222
    areaAverage(hand_left_Object01) for p = 100041
    areaAverage(hand_left_Object01) for Qr = -36.9176

faceSource hand_right_O output:
    areaAverage(hand_right_Object01) for T = 304.772
    areaAverage(hand_right_Object01) for X = 0.000170217
    areaAverage(hand_right_Object01) for p = 100041
    areaAverage(hand_right_Object01) for Qr = -14.2832

faceSource neck_back_O output:
    areaAverage(neck_back_Object01) for T = 305.024
    areaAverage(neck_back_Object01) for X = 0.000170204
    areaAverage(neck_back_Object01) for p = 100041
    areaAverage(neck_back_Object01) for Qr = -15.9651

faceSource neck_front_O output:
    areaAverage(neck_front_Object01) for T = 305.263
    areaAverage(neck_front_Object01) for X = 0.000170203
    areaAverage(neck_front_Object01) for p = 100040
    areaAverage(neck_front_Object01) for Qr = -20.8186

faceSource face_O output:
    areaAverage(face_Object01) for T = 303.933
    areaAverage(face_Object01) for X = 0.000170201
    areaAverage(face_Object01) for p = 100040
    areaAverage(face_Object01) for Qr = -15.6847

faceSource head_O output:
    areaAverage(head_Object01) for T = 304.246
    areaAverage(head_Object01) for X = 0.000170202
    areaAverage(head_Object01) for p = 100041
    areaAverage(head_Object01) for Qr = -16.0134

faceSource floor output:
    areaAverage(floor) for T = 299.029
    areaAverage(floor) for X = 0
    areaAverage(floor) for p = 100046
    areaAverage(floor) for Qr = 9.50122

faceSource ceiling output:
    areaAverage(ceiling) for T = 300.827
    areaAverage(ceiling) for X = 0
    areaAverage(ceiling) for p = 100019
    areaAverage(ceiling) for Qr = -2.92946

faceSource north output:
    areaAverage(north) for T = 300.38
    areaAverage(north) for X = 0
    areaAverage(north) for p = 100032
    areaAverage(north) for Qr = -0.198086

faceSource south output:
    areaAverage(south) for T = 299.771
    areaAverage(south) for X = 0
    areaAverage(south) for p = 100033
    areaAverage(south) for Qr = 3.66338

faceSource east output:
    areaAverage(east) for T = 299.934
    areaAverage(east) for X = 0
    areaAverage(east) for p = 100033
    areaAverage(east) for Qr = 2.36956

faceSource west output:
    areaAverage(west) for T = 299.827
    areaAverage(west) for X = 0
    areaAverage(west) for p = 100033
    areaAverage(west) for Qr = 2.29166

cellSource w_internal_T output:
    volAverage(w_internal_T) for T = 300.214
    volAverage(w_internal_T) for X = 0.0120092
    volAverage(w_internal_T) for p = 100033
    volAverage(w_internal_T) for Qr = 0


    0.06   36.78   34.56   36.36
   60.66   33.29    5.58   99.53   70.00   -6.92  -29.53
    0.12   36.78   34.53   36.36
   60.40   37.29    6.19  103.88   70.00  -34.01  -33.88
    0.19   36.78   34.50   36.36
   60.20   36.09    6.18  102.46   70.00  -32.57  -32.46
    0.25   36.78   34.48   36.36
   60.03   35.16    6.18  101.38   70.00  -31.46  -31.38
end
Job <13966> is submitted to default queue <normal>.
/*---------------------------------------------------------------------------*\
| =========                 |                                                 |
| \\      /  F ield         | OpenFOAM: The Open Source CFD Toolbox           |
|  \\    /   O peration     | Version:  2.2.x                                 |
|   \\  /    A nd           | Web:      www.OpenFOAM.org                      |
|    \\/     M anipulation  |                                                 |
\*---------------------------------------------------------------------------*/
Build  : 2.2.x-1ef4d132e582
Exec   : execFlowFunctionObjectsforHumidRad -latestTime
Date   : Dec 13 2017
Time   : 16:28:42
Host   : "queen01"
PID    : 8143
Case   : /home/tyou/OpenFOAM/tyou-2.2.x/run/test13b
nProcs : 1
sigFpe : Enabling floating point exception trapping (FOAM_SIGFPE).
fileModificationChecking : Monitoring run-time modified files using timeStampMaster
allowSystemOperations : Disallowing user-supplied system call operations

// * * * * * * * * * * * * * * * * * * * * * * * * * * * * * * * * * * * * * //
Create time

Create mesh for time = 30

cellSource back_left_T:cellZone(back_left_T):
    total cells  = 419
    total volume = 0.00640775



cellSource back_right_T:cellZone(back_right_T):
    total cells  = 419
    total volume = 0.00640775



cellSource chest_left_T:cellZone(chest_left_T):
    total cells  = 883
    total volume = 0.0138002



cellSource chest_right_T:cellZone(chest_right_T):
    total cells  = 826
    total volume = 0.012908



cellSource waist_left_back_T:cellZone(waist_left_back_T):
    total cells  = 298
    total volume = 0.00456347



cellSource waist_left_front_T:cellZone(waist_left_front_T):
    total cells  = 355
    total volume = 0.00526065



cellSource waist_right_back_T:cellZone(waist_right_back_T):
    total cells  = 263
    total volume = 0.00401842



cellSource waist_right_front_T:cellZone(waist_right_front_T):
    total cells  = 327
    total volume = 0.00482431



cellSource femur_left_back_T:cellZone(femur_left_back_T):
    total cells  = 619
    total volume = 0.00977313



cellSource femur_left_front_T:cellZone(femur_left_front_T):
    total cells  = 521
    total volume = 0.0080937



cellSource femur_right_back_T:cellZone(femur_right_back_T):
    total cells  = 540
    total volume = 0.00850484



cellSource femur_right_front_T:cellZone(femur_right_front_T):
    total cells  = 453
    total volume = 0.00696515



cellSource lowerleg_left_back_T:cellZone(lowerleg_left_back_T):
    total cells  = 469
    total volume = 0.00746579



cellSource lowerleg_left_front_T:cellZone(lowerleg_left_front_T):
    total cells  = 192
    total volume = 0.00297524



cellSource lowerleg_right_back_T:cellZone(lowerleg_right_back_T):
    total cells  = 228
    total volume = 0.00362306



cellSource lowerleg_right_front_T:cellZone(lowerleg_right_front_T):
    total cells  = 633
    total volume = 0.010036



cellSource upperarm_left_back_T:cellZone(upperarm_left_back_T):
    total cells  = 432
    total volume = 0.00689191



cellSource upperarm_left_front_T:cellZone(upperarm_left_front_T):
    total cells  = 576
    total volume = 0.00910935



cellSource upperarm_right_back_T:cellZone(upperarm_right_back_T):
    total cells  = 485
    total volume = 0.00766941



cellSource upperarm_right_front_T:cellZone(upperarm_right_front_T):
    total cells  = 286
    total volume = 0.00443021



cellSource forearm_left_back_T:cellZone(forearm_left_back_T):
    total cells  = 202
    total volume = 0.00301647



cellSource forearm_left_front_T:cellZone(forearm_left_front_T):
    total cells  = 52
    total volume = 0.000695687



cellSource forearm_right_back_T:cellZone(forearm_right_back_T):
    total cells  = 152
    total volume = 0.00225832



cellSource forearm_right_front_T:cellZone(forearm_right_front_T):
    total cells  = 152
    total volume = 0.00226063



cellSource foot_left_T:cellZone(foot_left_T):
    total cells  = 169
    total volume = 0.00267986



cellSource foot_right_T:cellZone(foot_right_T):
    total cells  = 119
    total volume = 0.00181311



cellSource hand_left_T:cellZone(hand_left_T):
    total cells  = 105
    total volume = 0.0015562



cellSource hand_right_T:cellZone(hand_right_T):
    total cells  = 105
    total volume = 0.00155538



cellSource neck_back_T:cellZone(neck_back_T):
    total cells  = 61
    total volume = 0.000874303



cellSource neck_front_T:cellZone(neck_front_T):
    total cells  = 49
    total volume = 0.00074802



cellSource face_T:cellZone(face_T):
    total cells  = 209
    total volume = 0.00323678



cellSource head_T:cellZone(head_T):
    total cells  = 391
    total volume = 0.00595878



faceSource back_left_O:
    total faces  = 96
    total area   = 0.0596702


faceSource back_right_O:
    total faces  = 106
    total area   = 0.0650963


faceSource chest_left_O:
    total faces  = 115
    total area   = 0.0726877


faceSource chest_right_O:
    total faces  = 104
    total area   = 0.0644426


faceSource waist_left_back_O:
    total faces  = 59
    total area   = 0.0383925


faceSource waist_left_front_O:
    total faces  = 56
    total area   = 0.0337796


faceSource waist_right_back_O:
    total faces  = 59
    total area   = 0.0384313


faceSource waist_right_front_O:
    total faces  = 54
    total area   = 0.0339853


faceSource femur_left_back_O:
    total faces  = 134
    total area   = 0.0818225


faceSource femur_left_front_O:
    total faces  = 140
    total area   = 0.0844578


faceSource femur_right_back_O:
    total faces  = 130
    total area   = 0.0806126


faceSource femur_right_front_O:
    total faces  = 141
    total area   = 0.0847977


faceSource lowerleg_left_back_O:
    total faces  = 101
    total area   = 0.0584235


faceSource lowerleg_left_front_O:
    total faces  = 97
    total area   = 0.0564815


faceSource lowerleg_right_back_O:
    total faces  = 91
    total area   = 0.0516206


faceSource lowerleg_right_front_O:
    total faces  = 111
    total area   = 0.0648007


faceSource upperarm_left_back_O:
    total faces  = 64
    total area   = 0.0375771


faceSource upperarm_left_front_O:
    total faces  = 53
    total area   = 0.0303102


faceSource upperarm_right_back_O:
    total faces  = 63
    total area   = 0.0368323


faceSource upperarm_right_front_O:
    total faces  = 54
    total area   = 0.0310832


faceSource forearm_left_back_O:
    total faces  = 52
    total area   = 0.0272596


faceSource forearm_left_front_O:
    total faces  = 39
    total area   = 0.0209756


faceSource forearm_right_back_O:
    total faces  = 49
    total area   = 0.0257124


faceSource forearm_right_front_O:
    total faces  = 41
    total area   = 0.0217399


faceSource foot_left_O:
    total faces  = 75
    total area   = 0.0388997


faceSource foot_right_O:
    total faces  = 78
    total area   = 0.0394712


faceSource hand_left_O:
    total faces  = 61
    total area   = 0.0259505


faceSource hand_right_O:
    total faces  = 60
    total area   = 0.0259491


faceSource neck_back_O:
    total faces  = 14
    total area   = 0.00812917


faceSource neck_front_O:
    total faces  = 20
    total area   = 0.00918914


faceSource face_O:
    total faces  = 53
    total area   = 0.0263509


faceSource head_O:
    total faces  = 120
    total area   = 0.0689807


faceSource floor:
    total faces  = 1600
    total area   = 16


faceSource ceiling:
    total faces  = 1600
    total area   = 16


faceSource north:
    total faces  = 771
    total area   = 7.71


faceSource south:
    total faces  = 960
    total area   = 9.6


faceSource east:
    total faces  = 960
    total area   = 9.6


faceSource west:
    total faces  = 690
    total area   = 6.9


cellSource w_internal_T:cellZone(w_internal_T):
    total cells  = 64441
    total volume = 36.1515



Time = 30
    Reading phi
    Reading U
    Reading p
    Reading X
    Reading Qr
Selecting thermodynamics package 
{
    type            heRhoThermo;
    mixture         pureMixture;
    transport       const;
    thermo          hConst;
    equationOfState perfectGas;
    specie          specie;
    energy          sensibleEnthalpy;
}

Selecting RAS turbulence model RNGkEpsilon
RNGkEpsilonCoeffs
{
    Cmu             0.0845;
    C1              1.42;
    C2              1.68;
    C3              -0.33;
    sigmak          0.71942;
    sigmaEps        0.71942;
    Prt             1;
    eta0            4.38;
    beta            0.012;
}

cellSource back_left_T output:
    volAverage(back_left_T) for T = 302.396
    volAverage(back_left_T) for X = 0.0104909
    volAverage(back_left_T) for p = 100041
    volAverage(back_left_T) for Qr = 0

cellSource back_right_T output:
    volAverage(back_right_T) for T = 302.262
    volAverage(back_right_T) for X = 0.0109221
    volAverage(back_right_T) for p = 100041
    volAverage(back_right_T) for Qr = 0

cellSource chest_left_T output:
    volAverage(chest_left_T) for T = 302.286
    volAverage(chest_left_T) for X = 0.0106319
    volAverage(chest_left_T) for p = 100040
    volAverage(chest_left_T) for Qr = 0

cellSource chest_right_T output:
    volAverage(chest_right_T) for T = 301.538
    volAverage(chest_right_T) for X = 0.0112519
    volAverage(chest_right_T) for p = 100040
    volAverage(chest_right_T) for Qr = 0

cellSource waist_left_back_T output:
    volAverage(waist_left_back_T) for T = 302.324
    volAverage(waist_left_back_T) for X = 0.0100113
    volAverage(waist_left_back_T) for p = 100042
    volAverage(waist_left_back_T) for Qr = 0

cellSource waist_left_front_T output:
    volAverage(waist_left_front_T) for T = 303.1
    volAverage(waist_left_front_T) for X = 0.00961217
    volAverage(waist_left_front_T) for p = 100040
    volAverage(waist_left_front_T) for Qr = 0

cellSource waist_right_back_T output:
    volAverage(waist_right_back_T) for T = 302.275
    volAverage(waist_right_back_T) for X = 0.0105064
    volAverage(waist_right_back_T) for p = 100042
    volAverage(waist_right_back_T) for Qr = 0

cellSource waist_right_front_T output:
    volAverage(waist_right_front_T) for T = 301.757
    volAverage(waist_right_front_T) for X = 0.0109159
    volAverage(waist_right_front_T) for p = 100040
    volAverage(waist_right_front_T) for Qr = 0

cellSource femur_left_back_T output:
    volAverage(femur_left_back_T) for T = 301.887
    volAverage(femur_left_back_T) for X = 0.00965849
    volAverage(femur_left_back_T) for p = 100042
    volAverage(femur_left_back_T) for Qr = 0

cellSource femur_left_front_T output:
    volAverage(femur_left_front_T) for T = 302.377
    volAverage(femur_left_front_T) for X = 0.00942815
    volAverage(femur_left_front_T) for p = 100040
    volAverage(femur_left_front_T) for Qr = 0

cellSource femur_right_back_T output:
    volAverage(femur_right_back_T) for T = 301.698
    volAverage(femur_right_back_T) for X = 0.0105183
    volAverage(femur_right_back_T) for p = 100042
    volAverage(femur_right_back_T) for Qr = 0

cellSource femur_right_front_T output:
    volAverage(femur_right_front_T) for T = 302.242
    volAverage(femur_right_front_T) for X = 0.0103584
    volAverage(femur_right_front_T) for p = 100040
    volAverage(femur_right_front_T) for Qr = 0

cellSource lowerleg_left_back_T output:
    volAverage(lowerleg_left_back_T) for T = 301.507
    volAverage(lowerleg_left_back_T) for X = 0.0101504
    volAverage(lowerleg_left_back_T) for p = 100041
    volAverage(lowerleg_left_back_T) for Qr = 0

cellSource lowerleg_left_front_T output:
    volAverage(lowerleg_left_front_T) for T = 301.363
    volAverage(lowerleg_left_front_T) for X = 0.0102884
    volAverage(lowerleg_left_front_T) for p = 100041
    volAverage(lowerleg_left_front_T) for Qr = 0

cellSource lowerleg_right_back_T output:
    volAverage(lowerleg_right_back_T) for T = 301.355
    volAverage(lowerleg_right_back_T) for X = 0.0104757
    volAverage(lowerleg_right_back_T) for p = 100042
    volAverage(lowerleg_right_back_T) for Qr = 0

cellSource lowerleg_right_front_T output:
    volAverage(lowerleg_right_front_T) for T = 301.265
    volAverage(lowerleg_right_front_T) for X = 0.010638
    volAverage(lowerleg_right_front_T) for p = 100041
    volAverage(lowerleg_right_front_T) for Qr = 0

cellSource upperarm_left_back_T output:
    volAverage(upperarm_left_back_T) for T = 300.983
    volAverage(upperarm_left_back_T) for X = 0.0110809
    volAverage(upperarm_left_back_T) for p = 100042
    volAverage(upperarm_left_back_T) for Qr = 0

cellSource upperarm_left_front_T output:
    volAverage(upperarm_left_front_T) for T = 301.007
    volAverage(upperarm_left_front_T) for X = 0.0110774
    volAverage(upperarm_left_front_T) for p = 100040
    volAverage(upperarm_left_front_T) for Qr = 0

cellSource upperarm_right_back_T output:
    volAverage(upperarm_right_back_T) for T = 301.019
    volAverage(upperarm_right_back_T) for X = 0.0111628
    volAverage(upperarm_right_back_T) for p = 100042
    volAverage(upperarm_right_back_T) for Qr = 0

cellSource upperarm_right_front_T output:
    volAverage(upperarm_right_front_T) for T = 301.882
    volAverage(upperarm_right_front_T) for X = 0.0111871
    volAverage(upperarm_right_front_T) for p = 100041
    volAverage(upperarm_right_front_T) for Qr = 0

cellSource forearm_left_back_T output:
    volAverage(forearm_left_back_T) for T = 301.918
    volAverage(forearm_left_back_T) for X = 0.0099547
    volAverage(forearm_left_back_T) for p = 100042
    volAverage(forearm_left_back_T) for Qr = 0

cellSource forearm_left_front_T output:
    volAverage(forearm_left_front_T) for T = 303.305
    volAverage(forearm_left_front_T) for X = 0.00956646
    volAverage(forearm_left_front_T) for p = 100041
    volAverage(forearm_left_front_T) for Qr = 0

cellSource forearm_right_back_T output:
    volAverage(forearm_right_back_T) for T = 301.372
    volAverage(forearm_right_back_T) for X = 0.0111647
    volAverage(forearm_right_back_T) for p = 100042
    volAverage(forearm_right_back_T) for Qr = 0

cellSource forearm_right_front_T output:
    volAverage(forearm_right_front_T) for T = 301.435
    volAverage(forearm_right_front_T) for X = 0.0112038
    volAverage(forearm_right_front_T) for p = 100041
    volAverage(forearm_right_front_T) for Qr = 0

cellSource foot_left_T output:
    volAverage(foot_left_T) for T = 301.113
    volAverage(foot_left_T) for X = 0.0109541
    volAverage(foot_left_T) for p = 100040
    volAverage(foot_left_T) for Qr = 0

cellSource foot_right_T output:
    volAverage(foot_right_T) for T = 301.162
    volAverage(foot_right_T) for X = 0.0109104
    volAverage(foot_right_T) for p = 100040
    volAverage(foot_right_T) for Qr = 0

cellSource hand_left_T output:
    volAverage(hand_left_T) for T = 302.847
    volAverage(hand_left_T) for X = 0.00878873
    volAverage(hand_left_T) for p = 100041
    volAverage(hand_left_T) for Qr = 0

cellSource hand_right_T output:
    volAverage(hand_right_T) for T = 301.778
    volAverage(hand_right_T) for X = 0.0111509
    volAverage(hand_right_T) for p = 100041
    volAverage(hand_right_T) for Qr = 0

cellSource neck_back_T output:
    volAverage(neck_back_T) for T = 301.878
    volAverage(neck_back_T) for X = 0.0106171
    volAverage(neck_back_T) for p = 100041
    volAverage(neck_back_T) for Qr = 0

cellSource neck_front_T output:
    volAverage(neck_front_T) for T = 302.199
    volAverage(neck_front_T) for X = 0.0105771
    volAverage(neck_front_T) for p = 100040
    volAverage(neck_front_T) for Qr = 0

cellSource face_T output:
    volAverage(face_T) for T = 301.296
    volAverage(face_T) for X = 0.011063
    volAverage(face_T) for p = 100040
    volAverage(face_T) for Qr = 0

cellSource head_T output:
    volAverage(head_T) for T = 301.32
    volAverage(head_T) for X = 0.0109888
    volAverage(head_T) for p = 100040
    volAverage(head_T) for Qr = 0

faceSource back_left_O output:
    areaAverage(back_left_Object01) for T = 324.881
    areaAverage(back_left_Object01) for X = 5.56662e-05
    areaAverage(back_left_Object01) for p = 100041
    areaAverage(back_left_Object01) for Qr = -126.125

faceSource back_right_O output:
    areaAverage(back_right_Object01) for T = 327.723
    areaAverage(back_right_Object01) for X = 5.55477e-05
    areaAverage(back_right_Object01) for p = 100041
    areaAverage(back_right_Object01) for Qr = -130.24

faceSource chest_left_O output:
    areaAverage(chest_left_Object01) for T = 322.82
    areaAverage(chest_left_Object01) for X = 5.11086e-05
    areaAverage(chest_left_Object01) for p = 100040
    areaAverage(chest_left_Object01) for Qr = -111.228

faceSource chest_right_O output:
    areaAverage(chest_right_Object01) for T = 334.527
    areaAverage(chest_right_Object01) for X = 5.11654e-05
    areaAverage(chest_right_Object01) for p = 100040
    areaAverage(chest_right_Object01) for Qr = -181.533

faceSource waist_left_back_O output:
    areaAverage(waist_left_back_Object01) for T = 306.204
    areaAverage(waist_left_back_Object01) for X = 5.06974e-05
    areaAverage(waist_left_back_Object01) for p = 100042
    areaAverage(waist_left_back_Object01) for Qr = -12.5731

faceSource waist_left_front_O output:
    areaAverage(waist_left_front_Object01) for T = 311.238
    areaAverage(waist_left_front_Object01) for X = 4.42564e-05
    areaAverage(waist_left_front_Object01) for p = 100040
    areaAverage(waist_left_front_Object01) for Qr = -48.5569

faceSource waist_right_back_O output:
    areaAverage(waist_right_back_Object01) for T = 303.836
    areaAverage(waist_right_back_Object01) for X = 4.85159e-05
    areaAverage(waist_right_back_Object01) for p = 100042
    areaAverage(waist_right_back_Object01) for Qr = 7.09228

faceSource waist_right_front_O output:
    areaAverage(waist_right_front_Object01) for T = 311.845
    areaAverage(waist_right_front_Object01) for X = 4.40598e-05
    areaAverage(waist_right_front_Object01) for p = 100040
    areaAverage(waist_right_front_Object01) for Qr = -45.8398

faceSource femur_left_back_O output:
    areaAverage(femur_left_back_Object01) for T = 306.897
    areaAverage(femur_left_back_Object01) for X = 2.61852e-05
    areaAverage(femur_left_back_Object01) for p = 100042
    areaAverage(femur_left_back_Object01) for Qr = -15.3412

faceSource femur_left_front_O output:
    areaAverage(femur_left_front_Object01) for T = 308.481
    areaAverage(femur_left_front_Object01) for X = 2.70933e-05
    areaAverage(femur_left_front_Object01) for p = 100040
    areaAverage(femur_left_front_Object01) for Qr = -29.5224

faceSource femur_right_back_O output:
    areaAverage(femur_right_back_Object01) for T = 308.991
    areaAverage(femur_right_back_Object01) for X = 2.63727e-05
    areaAverage(femur_right_back_Object01) for p = 100042
    areaAverage(femur_right_back_Object01) for Qr = -20.1789

faceSource femur_right_front_O output:
    areaAverage(femur_right_front_Object01) for T = 311.298
    areaAverage(femur_right_front_Object01) for X = 2.67011e-05
    areaAverage(femur_right_front_Object01) for p = 100040
    areaAverage(femur_right_front_Object01) for Qr = -36.9501

faceSource lowerleg_left_back_O output:
    areaAverage(lowerleg_left_back_Object01) for T = 306.318
    areaAverage(lowerleg_left_back_Object01) for X = 2.34251e-05
    areaAverage(lowerleg_left_back_Object01) for p = 100041
    areaAverage(lowerleg_left_back_Object01) for Qr = -18.1214

faceSource lowerleg_left_front_O output:
    areaAverage(lowerleg_left_front_Object01) for T = 308.07
    areaAverage(lowerleg_left_front_Object01) for X = 2.43024e-05
    areaAverage(lowerleg_left_front_Object01) for p = 100041
    areaAverage(lowerleg_left_front_Object01) for Qr = -34.29

faceSource lowerleg_right_back_O output:
    areaAverage(lowerleg_right_back_Object01) for T = 312.201
    areaAverage(lowerleg_right_back_Object01) for X = 2.38225e-05
    areaAverage(lowerleg_right_back_Object01) for p = 100041
    areaAverage(lowerleg_right_back_Object01) for Qr = -49.0918

faceSource lowerleg_right_front_O output:
    areaAverage(lowerleg_right_front_Object01) for T = 308.482
    areaAverage(lowerleg_right_front_Object01) for X = 2.37748e-05
    areaAverage(lowerleg_right_front_Object01) for p = 100041
    areaAverage(lowerleg_right_front_Object01) for Qr = -36.0349

faceSource upperarm_left_back_O output:
    areaAverage(upperarm_left_back_Object01) for T = 312.441
    areaAverage(upperarm_left_back_Object01) for X = 2.82871e-05
    areaAverage(upperarm_left_back_Object01) for p = 100041
    areaAverage(upperarm_left_back_Object01) for Qr = -45.5638

faceSource upperarm_left_front_O output:
    areaAverage(upperarm_left_front_Object01) for T = 326.382
    areaAverage(upperarm_left_front_Object01) for X = 2.87703e-05
    areaAverage(upperarm_left_front_Object01) for p = 100041
    areaAverage(upperarm_left_front_Object01) for Qr = -121.599

faceSource upperarm_right_back_O output:
    areaAverage(upperarm_right_back_Object01) for T = 321.076
    areaAverage(upperarm_right_back_Object01) for X = 2.83181e-05
    areaAverage(upperarm_right_back_Object01) for p = 100041
    areaAverage(upperarm_right_back_Object01) for Qr = -94.8705

faceSource upperarm_right_front_O output:
    areaAverage(upperarm_right_front_Object01) for T = 344.59
    areaAverage(upperarm_right_front_Object01) for X = 2.83592e-05
    areaAverage(upperarm_right_front_Object01) for p = 100041
    areaAverage(upperarm_right_front_Object01) for Qr = -243.447

faceSource forearm_left_back_O output:
    areaAverage(forearm_left_back_Object01) for T = 311.465
    areaAverage(forearm_left_back_Object01) for X = 2.71551e-05
    areaAverage(forearm_left_back_Object01) for p = 100041
    areaAverage(forearm_left_back_Object01) for Qr = -44.2254

faceSource forearm_left_front_O output:
    areaAverage(forearm_left_front_Object01) for T = 318.221
    areaAverage(forearm_left_front_Object01) for X = 2.80747e-05
    areaAverage(forearm_left_front_Object01) for p = 100041
    areaAverage(forearm_left_front_Object01) for Qr = -78.3789

faceSource forearm_right_back_O output:
    areaAverage(forearm_right_back_Object01) for T = 325.339
    areaAverage(forearm_right_back_Object01) for X = 2.66033e-05
    areaAverage(forearm_right_back_Object01) for p = 100041
    areaAverage(forearm_right_back_Object01) for Qr = -127.107

faceSource forearm_right_front_O output:
    areaAverage(forearm_right_front_Object01) for T = 334.218
    areaAverage(forearm_right_front_Object01) for X = 2.65991e-05
    areaAverage(forearm_right_front_Object01) for p = 100041
    areaAverage(forearm_right_front_Object01) for Qr = -179.975

faceSource foot_left_O output:
    areaAverage(foot_left_Object01) for T = 317.719
    areaAverage(foot_left_Object01) for X = 2.27017e-05
    areaAverage(foot_left_Object01) for p = 100040
    areaAverage(foot_left_Object01) for Qr = -90.546

faceSource foot_right_O output:
    areaAverage(foot_right_Object01) for T = 318.854
    areaAverage(foot_right_Object01) for X = 2.29446e-05
    areaAverage(foot_right_Object01) for p = 100040
    areaAverage(foot_right_Object01) for Qr = -96.7951

faceSource hand_left_O output:
    areaAverage(hand_left_Object01) for T = 323.356
    areaAverage(hand_left_Object01) for X = 3.53115e-05
    areaAverage(hand_left_Object01) for p = 100041
    areaAverage(hand_left_Object01) for Qr = -116.657

faceSource hand_right_O output:
    areaAverage(hand_right_Object01) for T = 344.168
    areaAverage(hand_right_Object01) for X = 3.34245e-05
    areaAverage(hand_right_Object01) for p = 100041
    areaAverage(hand_right_Object01) for Qr = -257.406

faceSource neck_back_O output:
    areaAverage(neck_back_Object01) for T = 316.691
    areaAverage(neck_back_Object01) for X = 4.25324e-05
    areaAverage(neck_back_Object01) for p = 100041
    areaAverage(neck_back_Object01) for Qr = -75.8201

faceSource neck_front_O output:
    areaAverage(neck_front_Object01) for T = 327.408
    areaAverage(neck_front_Object01) for X = 4.27524e-05
    areaAverage(neck_front_Object01) for p = 100040
    areaAverage(neck_front_Object01) for Qr = -130.127

faceSource face_O output:
    areaAverage(face_Object01) for T = 325.144
    areaAverage(face_Object01) for X = 5.41424e-05
    areaAverage(face_Object01) for p = 100040
    areaAverage(face_Object01) for Qr = -126.208

faceSource head_O output:
    areaAverage(head_Object01) for T = 312.648
    areaAverage(head_Object01) for X = 5.36672e-05
    areaAverage(head_Object01) for p = 100041
    areaAverage(head_Object01) for Qr = -55.7789

faceSource floor output:
    areaAverage(floor) for T = 300.071
    areaAverage(floor) for X = 0
    areaAverage(floor) for p = 100046
    areaAverage(floor) for Qr = 6.42127

faceSource ceiling output:
    areaAverage(ceiling) for T = 300.843
    areaAverage(ceiling) for X = 0
    areaAverage(ceiling) for p = 100019
    areaAverage(ceiling) for Qr = 1.53503

faceSource north output:
    areaAverage(north) for T = 300.556
    areaAverage(north) for X = 0
    areaAverage(north) for p = 100032
    areaAverage(north) for Qr = 1.52265

faceSource south output:
    areaAverage(south) for T = 300.777
    areaAverage(south) for X = 0
    areaAverage(south) for p = 100033
    areaAverage(south) for Qr = 2.81119

faceSource east output:
    areaAverage(east) for T = 301.046
    areaAverage(east) for X = 0
    areaAverage(east) for p = 100033
    areaAverage(east) for Qr = 1.07005

faceSource west output:
    areaAverage(west) for T = 300.135
    areaAverage(west) for X = 0
    areaAverage(west) for p = 100033
    areaAverage(west) for Qr = 2.65853

cellSource w_internal_T output:
    volAverage(w_internal_T) for T = 300.589
    volAverage(w_internal_T) for X = 0.0124722
    volAverage(w_internal_T) for p = 100033
    volAverage(w_internal_T) for Qr = 0


    0.06   36.78   34.50   36.36
   61.43   30.92    5.50   97.86   70.00   -4.65  -27.86
    0.12   36.78   34.47   36.36
   61.24   34.61    6.04  101.89   70.00  -31.99  -31.89
    0.19   36.78   34.45   36.36
   61.10   33.64    6.03  100.77   70.00  -30.85  -30.77
    0.25   36.78   34.43   36.35
   60.98   32.90    6.03   99.91   70.00  -29.97  -29.91
end
Job <13967> is submitted to default queue <normal>.
/*---------------------------------------------------------------------------*\
| =========                 |                                                 |
| \\      /  F ield         | OpenFOAM: The Open Source CFD Toolbox           |
|  \\    /   O peration     | Version:  2.2.x                                 |
|   \\  /    A nd           | Web:      www.OpenFOAM.org                      |
|    \\/     M anipulation  |                                                 |
\*---------------------------------------------------------------------------*/
Build  : 2.2.x-1ef4d132e582
Exec   : execFlowFunctionObjectsforHumidRad -latestTime
Date   : Dec 13 2017
Time   : 16:59:13
Host   : "queen01"
PID    : 17729
Case   : /home/tyou/OpenFOAM/tyou-2.2.x/run/test13b
nProcs : 1
sigFpe : Enabling floating point exception trapping (FOAM_SIGFPE).
fileModificationChecking : Monitoring run-time modified files using timeStampMaster
allowSystemOperations : Disallowing user-supplied system call operations

// * * * * * * * * * * * * * * * * * * * * * * * * * * * * * * * * * * * * * //
Create time

Create mesh for time = 45

cellSource back_left_T:cellZone(back_left_T):
    total cells  = 419
    total volume = 0.00640775



cellSource back_right_T:cellZone(back_right_T):
    total cells  = 419
    total volume = 0.00640775



cellSource chest_left_T:cellZone(chest_left_T):
    total cells  = 883
    total volume = 0.0138002



cellSource chest_right_T:cellZone(chest_right_T):
    total cells  = 826
    total volume = 0.012908



cellSource waist_left_back_T:cellZone(waist_left_back_T):
    total cells  = 298
    total volume = 0.00456347



cellSource waist_left_front_T:cellZone(waist_left_front_T):
    total cells  = 355
    total volume = 0.00526065



cellSource waist_right_back_T:cellZone(waist_right_back_T):
    total cells  = 263
    total volume = 0.00401842



cellSource waist_right_front_T:cellZone(waist_right_front_T):
    total cells  = 327
    total volume = 0.00482431



cellSource femur_left_back_T:cellZone(femur_left_back_T):
    total cells  = 619
    total volume = 0.00977313



cellSource femur_left_front_T:cellZone(femur_left_front_T):
    total cells  = 521
    total volume = 0.0080937



cellSource femur_right_back_T:cellZone(femur_right_back_T):
    total cells  = 540
    total volume = 0.00850484



cellSource femur_right_front_T:cellZone(femur_right_front_T):
    total cells  = 453
    total volume = 0.00696515



cellSource lowerleg_left_back_T:cellZone(lowerleg_left_back_T):
    total cells  = 469
    total volume = 0.00746579



cellSource lowerleg_left_front_T:cellZone(lowerleg_left_front_T):
    total cells  = 192
    total volume = 0.00297524



cellSource lowerleg_right_back_T:cellZone(lowerleg_right_back_T):
    total cells  = 228
    total volume = 0.00362306



cellSource lowerleg_right_front_T:cellZone(lowerleg_right_front_T):
    total cells  = 633
    total volume = 0.010036



cellSource upperarm_left_back_T:cellZone(upperarm_left_back_T):
    total cells  = 432
    total volume = 0.00689191



cellSource upperarm_left_front_T:cellZone(upperarm_left_front_T):
    total cells  = 576
    total volume = 0.00910935



cellSource upperarm_right_back_T:cellZone(upperarm_right_back_T):
    total cells  = 485
    total volume = 0.00766941



cellSource upperarm_right_front_T:cellZone(upperarm_right_front_T):
    total cells  = 286
    total volume = 0.00443021



cellSource forearm_left_back_T:cellZone(forearm_left_back_T):
    total cells  = 202
    total volume = 0.00301647



cellSource forearm_left_front_T:cellZone(forearm_left_front_T):
    total cells  = 52
    total volume = 0.000695687



cellSource forearm_right_back_T:cellZone(forearm_right_back_T):
    total cells  = 152
    total volume = 0.00225832



cellSource forearm_right_front_T:cellZone(forearm_right_front_T):
    total cells  = 152
    total volume = 0.00226063



cellSource foot_left_T:cellZone(foot_left_T):
    total cells  = 169
    total volume = 0.00267986



cellSource foot_right_T:cellZone(foot_right_T):
    total cells  = 119
    total volume = 0.00181311



cellSource hand_left_T:cellZone(hand_left_T):
    total cells  = 105
    total volume = 0.0015562



cellSource hand_right_T:cellZone(hand_right_T):
    total cells  = 105
    total volume = 0.00155538



cellSource neck_back_T:cellZone(neck_back_T):
    total cells  = 61
    total volume = 0.000874303



cellSource neck_front_T:cellZone(neck_front_T):
    total cells  = 49
    total volume = 0.00074802



cellSource face_T:cellZone(face_T):
    total cells  = 209
    total volume = 0.00323678



cellSource head_T:cellZone(head_T):
    total cells  = 391
    total volume = 0.00595878



faceSource back_left_O:
    total faces  = 96
    total area   = 0.0596702


faceSource back_right_O:
    total faces  = 106
    total area   = 0.0650963


faceSource chest_left_O:
    total faces  = 115
    total area   = 0.0726877


faceSource chest_right_O:
    total faces  = 104
    total area   = 0.0644426


faceSource waist_left_back_O:
    total faces  = 59
    total area   = 0.0383925


faceSource waist_left_front_O:
    total faces  = 56
    total area   = 0.0337796


faceSource waist_right_back_O:
    total faces  = 59
    total area   = 0.0384313


faceSource waist_right_front_O:
    total faces  = 54
    total area   = 0.0339853


faceSource femur_left_back_O:
    total faces  = 134
    total area   = 0.0818225


faceSource femur_left_front_O:
    total faces  = 140
    total area   = 0.0844578


faceSource femur_right_back_O:
    total faces  = 130
    total area   = 0.0806126


faceSource femur_right_front_O:
    total faces  = 141
    total area   = 0.0847977


faceSource lowerleg_left_back_O:
    total faces  = 101
    total area   = 0.0584235


faceSource lowerleg_left_front_O:
    total faces  = 97
    total area   = 0.0564815


faceSource lowerleg_right_back_O:
    total faces  = 91
    total area   = 0.0516206


faceSource lowerleg_right_front_O:
    total faces  = 111
    total area   = 0.0648007


faceSource upperarm_left_back_O:
    total faces  = 64
    total area   = 0.0375771


faceSource upperarm_left_front_O:
    total faces  = 53
    total area   = 0.0303102


faceSource upperarm_right_back_O:
    total faces  = 63
    total area   = 0.0368323


faceSource upperarm_right_front_O:
    total faces  = 54
    total area   = 0.0310832


faceSource forearm_left_back_O:
    total faces  = 52
    total area   = 0.0272596


faceSource forearm_left_front_O:
    total faces  = 39
    total area   = 0.0209756


faceSource forearm_right_back_O:
    total faces  = 49
    total area   = 0.0257124


faceSource forearm_right_front_O:
    total faces  = 41
    total area   = 0.0217399


faceSource foot_left_O:
    total faces  = 75
    total area   = 0.0388997


faceSource foot_right_O:
    total faces  = 78
    total area   = 0.0394712


faceSource hand_left_O:
    total faces  = 61
    total area   = 0.0259505


faceSource hand_right_O:
    total faces  = 60
    total area   = 0.0259491


faceSource neck_back_O:
    total faces  = 14
    total area   = 0.00812917


faceSource neck_front_O:
    total faces  = 20
    total area   = 0.00918914


faceSource face_O:
    total faces  = 53
    total area   = 0.0263509


faceSource head_O:
    total faces  = 120
    total area   = 0.0689807


faceSource floor:
    total faces  = 1600
    total area   = 16


faceSource ceiling:
    total faces  = 1600
    total area   = 16


faceSource north:
    total faces  = 771
    total area   = 7.71


faceSource south:
    total faces  = 960
    total area   = 9.6


faceSource east:
    total faces  = 960
    total area   = 9.6


faceSource west:
    total faces  = 690
    total area   = 6.9


cellSource w_internal_T:cellZone(w_internal_T):
    total cells  = 64441
    total volume = 36.1515



Time = 45
    Reading phi
    Reading U
    Reading p
    Reading X
    Reading Qr
Selecting thermodynamics package 
{
    type            heRhoThermo;
    mixture         pureMixture;
    transport       const;
    thermo          hConst;
    equationOfState perfectGas;
    specie          specie;
    energy          sensibleEnthalpy;
}

Selecting RAS turbulence model RNGkEpsilon
RNGkEpsilonCoeffs
{
    Cmu             0.0845;
    C1              1.42;
    C2              1.68;
    C3              -0.33;
    sigmak          0.71942;
    sigmaEps        0.71942;
    Prt             1;
    eta0            4.38;
    beta            0.012;
}

cellSource back_left_T output:
    volAverage(back_left_T) for T = 301.66
    volAverage(back_left_T) for X = 0.010291
    volAverage(back_left_T) for p = 100041
    volAverage(back_left_T) for Qr = 0

cellSource back_right_T output:
    volAverage(back_right_T) for T = 301.388
    volAverage(back_right_T) for X = 0.0107876
    volAverage(back_right_T) for p = 100041
    volAverage(back_right_T) for Qr = 0

cellSource chest_left_T output:
    volAverage(chest_left_T) for T = 301.493
    volAverage(chest_left_T) for X = 0.0104311
    volAverage(chest_left_T) for p = 100040
    volAverage(chest_left_T) for Qr = 0

cellSource chest_right_T output:
    volAverage(chest_right_T) for T = 301.075
    volAverage(chest_right_T) for X = 0.0111472
    volAverage(chest_right_T) for p = 100040
    volAverage(chest_right_T) for Qr = 0

cellSource waist_left_back_T output:
    volAverage(waist_left_back_T) for T = 301.722
    volAverage(waist_left_back_T) for X = 0.00975422
    volAverage(waist_left_back_T) for p = 100042
    volAverage(waist_left_back_T) for Qr = 0

cellSource waist_left_front_T output:
    volAverage(waist_left_front_T) for T = 301.888
    volAverage(waist_left_front_T) for X = 0.00925632
    volAverage(waist_left_front_T) for p = 100040
    volAverage(waist_left_front_T) for Qr = 0

cellSource waist_right_back_T output:
    volAverage(waist_right_back_T) for T = 301.47
    volAverage(waist_right_back_T) for X = 0.0103908
    volAverage(waist_right_back_T) for p = 100042
    volAverage(waist_right_back_T) for Qr = 0

cellSource waist_right_front_T output:
    volAverage(waist_right_front_T) for T = 301.225
    volAverage(waist_right_front_T) for X = 0.0107681
    volAverage(waist_right_front_T) for p = 100040
    volAverage(waist_right_front_T) for Qr = 0

cellSource femur_left_back_T output:
    volAverage(femur_left_back_T) for T = 301.67
    volAverage(femur_left_back_T) for X = 0.0096617
    volAverage(femur_left_back_T) for p = 100042
    volAverage(femur_left_back_T) for Qr = 0

cellSource femur_left_front_T output:
    volAverage(femur_left_front_T) for T = 301.766
    volAverage(femur_left_front_T) for X = 0.00947136
    volAverage(femur_left_front_T) for p = 100040
    volAverage(femur_left_front_T) for Qr = 0

cellSource femur_right_back_T output:
    volAverage(femur_right_back_T) for T = 301.362
    volAverage(femur_right_back_T) for X = 0.010473
    volAverage(femur_right_back_T) for p = 100042
    volAverage(femur_right_back_T) for Qr = 0

cellSource femur_right_front_T output:
    volAverage(femur_right_front_T) for T = 301.488
    volAverage(femur_right_front_T) for X = 0.0103113
    volAverage(femur_right_front_T) for p = 100040
    volAverage(femur_right_front_T) for Qr = 0

cellSource lowerleg_left_back_T output:
    volAverage(lowerleg_left_back_T) for T = 301.494
    volAverage(lowerleg_left_back_T) for X = 0.0101654
    volAverage(lowerleg_left_back_T) for p = 100041
    volAverage(lowerleg_left_back_T) for Qr = 0

cellSource lowerleg_left_front_T output:
    volAverage(lowerleg_left_front_T) for T = 301.491
    volAverage(lowerleg_left_front_T) for X = 0.0102607
    volAverage(lowerleg_left_front_T) for p = 100041
    volAverage(lowerleg_left_front_T) for Qr = 0

cellSource lowerleg_right_back_T output:
    volAverage(lowerleg_right_back_T) for T = 301.403
    volAverage(lowerleg_right_back_T) for X = 0.0103728
    volAverage(lowerleg_right_back_T) for p = 100042
    volAverage(lowerleg_right_back_T) for Qr = 0

cellSource lowerleg_right_front_T output:
    volAverage(lowerleg_right_front_T) for T = 301.286
    volAverage(lowerleg_right_front_T) for X = 0.0105881
    volAverage(lowerleg_right_front_T) for p = 100041
    volAverage(lowerleg_right_front_T) for Qr = 0

cellSource upperarm_left_back_T output:
    volAverage(upperarm_left_back_T) for T = 301.028
    volAverage(upperarm_left_back_T) for X = 0.0110341
    volAverage(upperarm_left_back_T) for p = 100042
    volAverage(upperarm_left_back_T) for Qr = 0

cellSource upperarm_left_front_T output:
    volAverage(upperarm_left_front_T) for T = 301.007
    volAverage(upperarm_left_front_T) for X = 0.0110022
    volAverage(upperarm_left_front_T) for p = 100040
    volAverage(upperarm_left_front_T) for Qr = 0

cellSource upperarm_right_back_T output:
    volAverage(upperarm_right_back_T) for T = 301.029
    volAverage(upperarm_right_back_T) for X = 0.0111149
    volAverage(upperarm_right_back_T) for p = 100042
    volAverage(upperarm_right_back_T) for Qr = 0

cellSource upperarm_right_front_T output:
    volAverage(upperarm_right_front_T) for T = 301.188
    volAverage(upperarm_right_front_T) for X = 0.0110773
    volAverage(upperarm_right_front_T) for p = 100041
    volAverage(upperarm_right_front_T) for Qr = 0

cellSource forearm_left_back_T output:
    volAverage(forearm_left_back_T) for T = 301.651
    volAverage(forearm_left_back_T) for X = 0.00965045
    volAverage(forearm_left_back_T) for p = 100042
    volAverage(forearm_left_back_T) for Qr = 0

cellSource forearm_left_front_T output:
    volAverage(forearm_left_front_T) for T = 302.489
    volAverage(forearm_left_front_T) for X = 0.00892
    volAverage(forearm_left_front_T) for p = 100041
    volAverage(forearm_left_front_T) for Qr = 0

cellSource forearm_right_back_T output:
    volAverage(forearm_right_back_T) for T = 301.109
    volAverage(forearm_right_back_T) for X = 0.0110952
    volAverage(forearm_right_back_T) for p = 100042
    volAverage(forearm_right_back_T) for Qr = 0

cellSource forearm_right_front_T output:
    volAverage(forearm_right_front_T) for T = 301.114
    volAverage(forearm_right_front_T) for X = 0.0111218
    volAverage(forearm_right_front_T) for p = 100041
    volAverage(forearm_right_front_T) for Qr = 0

cellSource foot_left_T output:
    volAverage(foot_left_T) for T = 301.245
    volAverage(foot_left_T) for X = 0.011118
    volAverage(foot_left_T) for p = 100040
    volAverage(foot_left_T) for Qr = 0

cellSource foot_right_T output:
    volAverage(foot_right_T) for T = 301.306
    volAverage(foot_right_T) for X = 0.0108632
    volAverage(foot_right_T) for p = 100040
    volAverage(foot_right_T) for Qr = 0

cellSource hand_left_T output:
    volAverage(hand_left_T) for T = 301.942
    volAverage(hand_left_T) for X = 0.00910112
    volAverage(hand_left_T) for p = 100041
    volAverage(hand_left_T) for Qr = 0

cellSource hand_right_T output:
    volAverage(hand_right_T) for T = 301.175
    volAverage(hand_right_T) for X = 0.0110843
    volAverage(hand_right_T) for p = 100041
    volAverage(hand_right_T) for Qr = 0

cellSource neck_back_T output:
    volAverage(neck_back_T) for T = 301.511
    volAverage(neck_back_T) for X = 0.0104725
    volAverage(neck_back_T) for p = 100041
    volAverage(neck_back_T) for Qr = 0

cellSource neck_front_T output:
    volAverage(neck_front_T) for T = 301.55
    volAverage(neck_front_T) for X = 0.0104617
    volAverage(neck_front_T) for p = 100040
    volAverage(neck_front_T) for Qr = 0

cellSource face_T output:
    volAverage(face_T) for T = 301.091
    volAverage(face_T) for X = 0.0109888
    volAverage(face_T) for p = 100040
    volAverage(face_T) for Qr = 0

cellSource head_T output:
    volAverage(head_T) for T = 301.151
    volAverage(head_T) for X = 0.0109118
    volAverage(head_T) for p = 100040
    volAverage(head_T) for Qr = 0

faceSource back_left_O output:
    areaAverage(back_left_Object01) for T = 310.79
    areaAverage(back_left_Object01) for X = 5.4241e-05
    areaAverage(back_left_Object01) for p = 100041
    areaAverage(back_left_Object01) for Qr = -41.4237

faceSource back_right_O output:
    areaAverage(back_right_Object01) for T = 309.957
    areaAverage(back_right_Object01) for X = 5.4564e-05
    areaAverage(back_right_Object01) for p = 100041
    areaAverage(back_right_Object01) for Qr = -34.8698

faceSource chest_left_O output:
    areaAverage(chest_left_Object01) for T = 308.828
    areaAverage(chest_left_Object01) for X = 4.9435e-05
    areaAverage(chest_left_Object01) for p = 100040
    areaAverage(chest_left_Object01) for Qr = -34.9086

faceSource chest_right_O output:
    areaAverage(chest_right_Object01) for T = 309.745
    areaAverage(chest_right_Object01) for X = 5.1318e-05
    areaAverage(chest_right_Object01) for p = 100040
    areaAverage(chest_right_Object01) for Qr = -41.0542

faceSource waist_left_back_O output:
    areaAverage(waist_left_back_Object01) for T = 305.532
    areaAverage(waist_left_back_Object01) for X = 4.9553e-05
    areaAverage(waist_left_back_Object01) for p = 100042
    areaAverage(waist_left_back_Object01) for Qr = -11.0827

faceSource waist_left_front_O output:
    areaAverage(waist_left_front_Object01) for T = 303.157
    areaAverage(waist_left_front_Object01) for X = 4.2049e-05
    areaAverage(waist_left_front_Object01) for p = 100040
    areaAverage(waist_left_front_Object01) for Qr = -7.63857

faceSource waist_right_back_O output:
    areaAverage(waist_right_back_Object01) for T = 303.453
    areaAverage(waist_right_back_Object01) for X = 4.8921e-05
    areaAverage(waist_right_back_Object01) for p = 100042
    areaAverage(waist_right_back_Object01) for Qr = 0.610624

faceSource waist_right_front_O output:
    areaAverage(waist_right_front_Object01) for T = 304.603
    areaAverage(waist_right_front_Object01) for X = 4.2052e-05
    areaAverage(waist_right_front_Object01) for p = 100040
    areaAverage(waist_right_front_Object01) for Qr = -14.5712

faceSource femur_left_back_O output:
    areaAverage(femur_left_back_Object01) for T = 306.868
    areaAverage(femur_left_back_Object01) for X = 2.5595e-05
    areaAverage(femur_left_back_Object01) for p = 100041
    areaAverage(femur_left_back_Object01) for Qr = -17.9655

faceSource femur_left_front_O output:
    areaAverage(femur_left_front_Object01) for T = 305.746
    areaAverage(femur_left_front_Object01) for X = 2.5787e-05
    areaAverage(femur_left_front_Object01) for p = 100040
    areaAverage(femur_left_front_Object01) for Qr = -19.3475

faceSource femur_right_back_O output:
    areaAverage(femur_right_back_Object01) for T = 306.853
    areaAverage(femur_right_back_Object01) for X = 2.5514e-05
    areaAverage(femur_right_back_Object01) for p = 100041
    areaAverage(femur_right_back_Object01) for Qr = -17.5604

faceSource femur_right_front_O output:
    areaAverage(femur_right_front_Object01) for T = 305.997
    areaAverage(femur_right_front_Object01) for X = 2.5725e-05
    areaAverage(femur_right_front_Object01) for p = 100040
    areaAverage(femur_right_front_Object01) for Qr = -19.9374

faceSource lowerleg_left_back_O output:
    areaAverage(lowerleg_left_back_Object01) for T = 306.807
    areaAverage(lowerleg_left_back_Object01) for X = 2.2851e-05
    areaAverage(lowerleg_left_back_Object01) for p = 100041
    areaAverage(lowerleg_left_back_Object01) for Qr = -21.1045

faceSource lowerleg_left_front_O output:
    areaAverage(lowerleg_left_front_Object01) for T = 307.126
    areaAverage(lowerleg_left_front_Object01) for X = 2.3236e-05
    areaAverage(lowerleg_left_front_Object01) for p = 100041
    areaAverage(lowerleg_left_front_Object01) for Qr = -29.3762

faceSource lowerleg_right_back_O output:
    areaAverage(lowerleg_right_back_Object01) for T = 308.317
    areaAverage(lowerleg_right_back_Object01) for X = 2.3079e-05
    areaAverage(lowerleg_right_back_Object01) for p = 100041
    areaAverage(lowerleg_right_back_Object01) for Qr = -28.302

faceSource lowerleg_right_front_O output:
    areaAverage(lowerleg_right_front_Object01) for T = 306.105
    areaAverage(lowerleg_right_front_Object01) for X = 2.2777e-05
    areaAverage(lowerleg_right_front_Object01) for p = 100041
    areaAverage(lowerleg_right_front_Object01) for Qr = -23.2864

faceSource upperarm_left_back_O output:
    areaAverage(upperarm_left_back_Object01) for T = 310.204
    areaAverage(upperarm_left_back_Object01) for X = 2.7389e-05
    areaAverage(upperarm_left_back_Object01) for p = 100041
    areaAverage(upperarm_left_back_Object01) for Qr = -38.1463

faceSource upperarm_left_front_O output:
    areaAverage(upperarm_left_front_Object01) for T = 313.039
    areaAverage(upperarm_left_front_Object01) for X = 2.8268e-05
    areaAverage(upperarm_left_front_Object01) for p = 100041
    areaAverage(upperarm_left_front_Object01) for Qr = -55.1422

faceSource upperarm_right_back_O output:
    areaAverage(upperarm_right_back_Object01) for T = 310.171
    areaAverage(upperarm_right_back_Object01) for X = 2.7765e-05
    areaAverage(upperarm_right_back_Object01) for p = 100041
    areaAverage(upperarm_right_back_Object01) for Qr = -38.0195

faceSource upperarm_right_front_O output:
    areaAverage(upperarm_right_front_Object01) for T = 310.513
    areaAverage(upperarm_right_front_Object01) for X = 2.9502e-05
    areaAverage(upperarm_right_front_Object01) for p = 100041
    areaAverage(upperarm_right_front_Object01) for Qr = -40.8995

faceSource forearm_left_back_O output:
    areaAverage(forearm_left_back_Object01) for T = 310.087
    areaAverage(forearm_left_back_Object01) for X = 2.6263e-05
    areaAverage(forearm_left_back_Object01) for p = 100041
    areaAverage(forearm_left_back_Object01) for Qr = -38.461

faceSource forearm_left_front_O output:
    areaAverage(forearm_left_front_Object01) for T = 310.079
    areaAverage(forearm_left_front_Object01) for X = 2.6839e-05
    areaAverage(forearm_left_front_Object01) for p = 100041
    areaAverage(forearm_left_front_Object01) for Qr = -39.8009

faceSource forearm_right_back_O output:
    areaAverage(forearm_right_back_Object01) for T = 309.881
    areaAverage(forearm_right_back_Object01) for X = 2.6321e-05
    areaAverage(forearm_right_back_Object01) for p = 100041
    areaAverage(forearm_right_back_Object01) for Qr = -37.4302

faceSource forearm_right_front_O output:
    areaAverage(forearm_right_front_Object01) for T = 310.318
    areaAverage(forearm_right_front_Object01) for X = 2.6773e-05
    areaAverage(forearm_right_front_Object01) for p = 100041
    areaAverage(forearm_right_front_Object01) for Qr = -41.7033

faceSource foot_left_O output:
    areaAverage(foot_left_Object01) for T = 309.148
    areaAverage(foot_left_Object01) for X = 2.2238e-05
    areaAverage(foot_left_Object01) for p = 100040
    areaAverage(foot_left_Object01) for Qr = -39.6316

faceSource foot_right_O output:
    areaAverage(foot_right_Object01) for T = 310.24
    areaAverage(foot_right_Object01) for X = 2.2287e-05
    areaAverage(foot_right_Object01) for p = 100040
    areaAverage(foot_right_Object01) for Qr = -45.5867

faceSource hand_left_O output:
    areaAverage(hand_left_Object01) for T = 309.264
    areaAverage(hand_left_Object01) for X = 3.3636e-05
    areaAverage(hand_left_Object01) for p = 100041
    areaAverage(hand_left_Object01) for Qr = -34.745

faceSource hand_right_O output:
    areaAverage(hand_right_Object01) for T = 310.997
    areaAverage(hand_right_Object01) for X = 3.4275e-05
    areaAverage(hand_right_Object01) for p = 100041
    areaAverage(hand_right_Object01) for Qr = -44.8108

faceSource neck_back_O output:
    areaAverage(neck_back_Object01) for T = 309.29
    areaAverage(neck_back_Object01) for X = 4.0927e-05
    areaAverage(neck_back_Object01) for p = 100041
    areaAverage(neck_back_Object01) for Qr = -35.8643

faceSource neck_front_O output:
    areaAverage(neck_front_Object01) for T = 309.955
    areaAverage(neck_front_Object01) for X = 4.1952e-05
    areaAverage(neck_front_Object01) for p = 100040
    areaAverage(neck_front_Object01) for Qr = -39.6791

faceSource face_O output:
    areaAverage(face_Object01) for T = 309.17
    areaAverage(face_Object01) for X = 5.3014e-05
    areaAverage(face_Object01) for p = 100040
    areaAverage(face_Object01) for Qr = -38.8079

faceSource head_O output:
    areaAverage(head_Object01) for T = 307.986
    areaAverage(head_Object01) for X = 5.1271e-05
    areaAverage(head_Object01) for p = 100041
    areaAverage(head_Object01) for Qr = -31.9527

faceSource floor output:
    areaAverage(floor) for T = 300.56
    areaAverage(floor) for X = 0
    areaAverage(floor) for p = 100046
    areaAverage(floor) for Qr = 4.49272

faceSource ceiling output:
    areaAverage(ceiling) for T = 300.844
    areaAverage(ceiling) for X = 0
    areaAverage(ceiling) for p = 100019
    areaAverage(ceiling) for Qr = 1.87419

faceSource north output:
    areaAverage(north) for T = 300.716
    areaAverage(north) for X = 0
    areaAverage(north) for p = 100032
    areaAverage(north) for Qr = 1.59932

faceSource south output:
    areaAverage(south) for T = 300.94
    areaAverage(south) for X = 0
    areaAverage(south) for p = 100033
    areaAverage(south) for Qr = 1.61034

faceSource east output:
    areaAverage(east) for T = 301.076
    areaAverage(east) for X = 0
    areaAverage(east) for p = 100033
    areaAverage(east) for Qr = 0.658761

faceSource west output:
    areaAverage(west) for T = 300.634
    areaAverage(west) for X = 0
    areaAverage(west) for p = 100033
    areaAverage(west) for Qr = 1.35055

cellSource w_internal_T output:
    volAverage(w_internal_T) for T = 300.815
    volAverage(w_internal_T) for X = 0.0125055
    volAverage(w_internal_T) for p = 100033
    volAverage(w_internal_T) for Qr = 0


    0.06   36.78   34.47   36.35
   45.64   29.31    5.52   80.47   70.00    4.99  -10.47
    0.12   36.78   34.46   36.35
   45.62   33.45    6.07   85.13   70.00  -15.15  -15.13
    0.19   36.78   34.46   36.35
   45.60   33.26    6.06   84.91   70.00  -14.93  -14.91
    0.25   36.78   34.45   36.35
   45.57   33.08    6.06   84.71   70.00  -14.73  -14.71
end
Job <13968> is submitted to default queue <normal>.
/*---------------------------------------------------------------------------*\
| =========                 |                                                 |
| \\      /  F ield         | OpenFOAM: The Open Source CFD Toolbox           |
|  \\    /   O peration     | Version:  2.2.x                                 |
|   \\  /    A nd           | Web:      www.OpenFOAM.org                      |
|    \\/     M anipulation  |                                                 |
\*---------------------------------------------------------------------------*/
Build  : 2.2.x-1ef4d132e582
Exec   : execFlowFunctionObjectsforHumidRad -latestTime
Date   : Dec 13 2017
Time   : 17:29:42
Host   : "queen01"
PID    : 9358
Case   : /home/tyou/OpenFOAM/tyou-2.2.x/run/test13b
nProcs : 1
sigFpe : Enabling floating point exception trapping (FOAM_SIGFPE).
fileModificationChecking : Monitoring run-time modified files using timeStampMaster
allowSystemOperations : Disallowing user-supplied system call operations

// * * * * * * * * * * * * * * * * * * * * * * * * * * * * * * * * * * * * * //
Create time

Create mesh for time = 60

cellSource back_left_T:cellZone(back_left_T):
    total cells  = 419
    total volume = 0.00640775



[...]
    total area   = 0.0303102


faceSource upperarm_right_back_O:
    total faces  = 63
    total area   = 0.0368323


faceSource upperarm_right_front_O:
    total faces  = 54
    total area   = 0.0310832


faceSource forearm_left_back_O:
    total faces  = 52
    total area   = 0.0272596


faceSource forearm_left_front_O:
    total faces  = 39
    total area   = 0.0209756


faceSource forearm_right_back_O:
    total faces  = 49
    total area   = 0.0257124


faceSource forearm_right_front_O:
    total faces  = 41
    total area   = 0.0217399


faceSource foot_left_O:
    total faces  = 75
    total area   = 0.0388997


faceSource foot_right_O:
    total faces  = 78
    total area   = 0.0394712


faceSource hand_left_O:
    total faces  = 61
    total area   = 0.0259505


faceSource hand_right_O:
    total faces  = 60
    total area   = 0.0259491


faceSource neck_back_O:
    total faces  = 14
    total area   = 0.00812917


faceSource neck_front_O:
    total faces  = 20
    total area   = 0.00918914


faceSource face_O:
    total faces  = 53
    total area   = 0.0263509


faceSource head_O:
    total faces  = 120
    total area   = 0.0689807


faceSource floor:
    total faces  = 1600
    total area   = 16


faceSource ceiling:
    total faces  = 1600
    total area   = 16


faceSource north:
    total faces  = 771
    total area   = 7.71


faceSource south:
    total faces  = 960
    total area   = 9.6


faceSource east:
    total faces  = 960
    total area   = 9.6


faceSource west:
    total faces  = 690
    total area   = 6.9


cellSource w_internal_T:cellZone(w_internal_T):
    total cells  = 64441
    total volume = 36.1515



Time = 600
    Reading phi
    Reading U
    Reading p
    Reading X
    Reading Qr
Selecting thermodynamics package 
{
    type            heRhoThermo;
    mixture         pureMixture;
    transport       const;
    thermo          hConst;
    equationOfState perfectGas;
    specie          specie;
    energy          sensibleEnthalpy;
}

Selecting RAS turbulence model RNGkEpsilon
RNGkEpsilonCoeffs
{
    Cmu             0.0845;
    C1              1.42;
    C2              1.68;
    C3              -0.33;
    sigmak          0.71942;
    sigmaEps        0.71942;
    Prt             1;
    eta0            4.38;
    beta            0.012;
}

cellSource back_left_T output:
    volAverage(back_left_T) for T = 302.055
    volAverage(back_left_T) for X = 0.00952413
    volAverage(back_left_T) for p = 100041
    volAverage(back_left_T) for Qr = 0

cellSource back_right_T output:
    volAverage(back_right_T) for T = 301.71
    volAverage(back_right_T) for X = 0.0101632
    volAverage(back_right_T) for p = 100041
    volAverage(back_right_T) for Qr = 0

cellSource chest_left_T output:
    volAverage(chest_left_T) for T = 301.91
    volAverage(chest_left_T) for X = 0.00967626
    volAverage(chest_left_T) for p = 100040
    volAverage(chest_left_T) for Qr = 0

cellSource chest_right_T output:
    volAverage(chest_right_T) for T = 301.358
    volAverage(chest_right_T) for X = 0.0106195
    volAverage(chest_right_T) for p = 100040
    volAverage(chest_right_T) for Qr = 0

cellSource waist_left_back_T output:
    volAverage(waist_left_back_T) for T = 301.882
    volAverage(waist_left_back_T) for X = 0.00909242
    volAverage(waist_left_back_T) for p = 100042
    volAverage(waist_left_back_T) for Qr = 0

cellSource waist_left_front_T output:
    volAverage(waist_left_front_T) for T = 302.192
    volAverage(waist_left_front_T) for X = 0.00861476
    volAverage(waist_left_front_T) for p = 100040
    volAverage(waist_left_front_T) for Qr = 0

cellSource waist_right_back_T output:
    volAverage(waist_right_back_T) for T = 301.664
    volAverage(waist_right_back_T) for X = 0.00985096
    volAverage(waist_right_back_T) for p = 100042
    volAverage(waist_right_back_T) for Qr = 0

cellSource waist_right_front_T output:
    volAverage(waist_right_front_T) for T = 301.544
    volAverage(waist_right_front_T) for X = 0.0101724
    volAverage(waist_right_front_T) for p = 100040
    volAverage(waist_right_front_T) for Qr = 0

cellSource femur_left_back_T output:
    volAverage(femur_left_back_T) for T = 301.763
    volAverage(femur_left_back_T) for X = 0.0092132
    volAverage(femur_left_back_T) for p = 100042
    volAverage(femur_left_back_T) for Qr = 0

cellSource femur_left_front_T output:
    volAverage(femur_left_front_T) for T = 302.023
    volAverage(femur_left_front_T) for X = 0.00877868
    volAverage(femur_left_front_T) for p = 100040
    volAverage(femur_left_front_T) for Qr = 0

cellSource femur_right_back_T output:
    volAverage(femur_right_back_T) for T = 301.564
    volAverage(femur_right_back_T) for X = 0.00979738
    volAverage(femur_right_back_T) for p = 100042
    volAverage(femur_right_back_T) for Qr = 0

cellSource femur_right_front_T output:
    volAverage(femur_right_front_T) for T = 301.713
    volAverage(femur_right_front_T) for X = 0.00970791
    volAverage(femur_right_front_T) for p = 100040
    volAverage(femur_right_front_T) for Qr = 0

cellSource lowerleg_left_back_T output:
    volAverage(lowerleg_left_back_T) for T = 301.679
    volAverage(lowerleg_left_back_T) for X = 0.0100053
    volAverage(lowerleg_left_back_T) for p = 100041
    volAverage(lowerleg_left_back_T) for Qr = 0

cellSource lowerleg_left_front_T output:
    volAverage(lowerleg_left_front_T) for T = 301.735
    volAverage(lowerleg_left_front_T) for X = 0.0100385
    volAverage(lowerleg_left_front_T) for p = 100041
    volAverage(lowerleg_left_front_T) for Qr = 0

cellSource lowerleg_right_back_T output:
    volAverage(lowerleg_right_back_T) for T = 301.768
    volAverage(lowerleg_right_back_T) for X = 0.00969498
    volAverage(lowerleg_right_back_T) for p = 100041
    volAverage(lowerleg_right_back_T) for Qr = 0

cellSource lowerleg_right_front_T output:
    volAverage(lowerleg_right_front_T) for T = 301.607
    volAverage(lowerleg_right_front_T) for X = 0.0100434
    volAverage(lowerleg_right_front_T) for p = 100041
    volAverage(lowerleg_right_front_T) for Qr = 0

cellSource upperarm_left_back_T output:
    volAverage(upperarm_left_back_T) for T = 301.255
    volAverage(upperarm_left_back_T) for X = 0.0104918
    volAverage(upperarm_left_back_T) for p = 100041
    volAverage(upperarm_left_back_T) for Qr = 0

cellSource upperarm_left_front_T output:
    volAverage(upperarm_left_front_T) for T = 301.302
    volAverage(upperarm_left_front_T) for X = 0.0103818
    volAverage(upperarm_left_front_T) for p = 100040
    volAverage(upperarm_left_front_T) for Qr = 0

cellSource upperarm_right_back_T output:
    volAverage(upperarm_right_back_T) for T = 301.241
    volAverage(upperarm_right_back_T) for X = 0.0105903
    volAverage(upperarm_right_back_T) for p = 100041
    volAverage(upperarm_right_back_T) for Qr = 0

cellSource upperarm_right_front_T output:
    volAverage(upperarm_right_front_T) for T = 301.482
    volAverage(upperarm_right_front_T) for X = 0.0105212
    volAverage(upperarm_right_front_T) for p = 100041
    volAverage(upperarm_right_front_T) for Qr = 0

cellSource forearm_left_back_T output:
    volAverage(forearm_left_back_T) for T = 301.894
    volAverage(forearm_left_back_T) for X = 0.0086083
    volAverage(forearm_left_back_T) for p = 100042
    volAverage(forearm_left_back_T) for Qr = 0

cellSource forearm_left_front_T output:
    volAverage(forearm_left_front_T) for T = 302.578
    volAverage(forearm_left_front_T) for X = 0.00809794
    volAverage(forearm_left_front_T) for p = 100041
    volAverage(forearm_left_front_T) for Qr = 0

cellSource forearm_right_back_T output:
    volAverage(forearm_right_back_T) for T = 301.356
    volAverage(forearm_right_back_T) for X = 0.0105598
    volAverage(forearm_right_back_T) for p = 100042
    volAverage(forearm_right_back_T) for Qr = 0

cellSource forearm_right_front_T output:
    volAverage(forearm_right_front_T) for T = 301.374
    volAverage(forearm_right_front_T) for X = 0.0105878
    volAverage(forearm_right_front_T) for p = 100041
    volAverage(forearm_right_front_T) for Qr = 0

cellSource foot_left_T output:
    volAverage(foot_left_T) for T = 301.373
    volAverage(foot_left_T) for X = 0.0111458
    volAverage(foot_left_T) for p = 100040
    volAverage(foot_left_T) for Qr = 0

cellSource foot_right_T output:
    volAverage(foot_right_T) for T = 301.443
    volAverage(foot_right_T) for X = 0.0108603
    volAverage(foot_right_T) for p = 100040
    volAverage(foot_right_T) for Qr = 0

cellSource hand_left_T output:
    volAverage(hand_left_T) for T = 302.099
    volAverage(hand_left_T) for X = 0.00895408
    volAverage(hand_left_T) for p = 100041
    volAverage(hand_left_T) for Qr = 0

cellSource hand_right_T output:
    volAverage(hand_right_T) for T = 301.415
    volAverage(hand_right_T) for X = 0.0105702
    volAverage(hand_right_T) for p = 100041
    volAverage(hand_right_T) for Qr = 0

cellSource neck_back_T output:
    volAverage(neck_back_T) for T = 301.751
    volAverage(neck_back_T) for X = 0.00993331
    volAverage(neck_back_T) for p = 100041
    volAverage(neck_back_T) for Qr = 0

cellSource neck_front_T output:
    volAverage(neck_front_T) for T = 301.777
    volAverage(neck_front_T) for X = 0.00993636
    volAverage(neck_front_T) for p = 100040
    volAverage(neck_front_T) for Qr = 0

cellSource face_T output:
    volAverage(face_T) for T = 301.366
    volAverage(face_T) for X = 0.0104091
    volAverage(face_T) for p = 100039
    volAverage(face_T) for Qr = 0

cellSource head_T output:
    volAverage(head_T) for T = 301.402
    volAverage(head_T) for X = 0.0103555
    volAverage(head_T) for p = 100040
    volAverage(head_T) for Qr = 0

faceSource back_left_O output:
    areaAverage(back_left_Object01) for T = 310.855
    areaAverage(back_left_Object01) for X = 4.30255e-05
    areaAverage(back_left_Object01) for p = 100041
    areaAverage(back_left_Object01) for Qr = -41.918

faceSource back_right_O output:
    areaAverage(back_right_Object01) for T = 310.457
    areaAverage(back_right_Object01) for X = 4.27686e-05
    areaAverage(back_right_Object01) for p = 100041
    areaAverage(back_right_Object01) for Qr = -37.8262

faceSource chest_left_O output:
    areaAverage(chest_left_Object01) for T = 309.08
    areaAverage(chest_left_Object01) for X = 3.95154e-05
    areaAverage(chest_left_Object01) for p = 100040
    areaAverage(chest_left_Object01) for Qr = -35.6157

faceSource chest_right_O output:
    areaAverage(chest_right_Object01) for T = 309.786
    areaAverage(chest_right_Object01) for X = 3.95983e-05
    areaAverage(chest_right_Object01) for p = 100040
    areaAverage(chest_right_Object01) for Qr = -40.4853

faceSource waist_left_back_O output:
    areaAverage(waist_left_back_Object01) for T = 306.043
    areaAverage(waist_left_back_Object01) for X = 4.21364e-05
    areaAverage(waist_left_back_Object01) for p = 100042
    areaAverage(waist_left_back_Object01) for Qr = -13.9193

faceSource waist_left_front_O output:
    areaAverage(waist_left_front_Object01) for T = 306.141
    areaAverage(waist_left_front_Object01) for X = 3.53918e-05
    areaAverage(waist_left_front_Object01) for p = 100040
    areaAverage(waist_left_front_Object01) for Qr = -21.6759

faceSource waist_right_back_O output:
    areaAverage(waist_right_back_Object01) for T = 304.277
    areaAverage(waist_right_back_Object01) for X = 4.16634e-05
    areaAverage(waist_right_back_Object01) for p = 100042
    areaAverage(waist_right_back_Object01) for Qr = -3.88667

faceSource waist_right_front_O output:
    areaAverage(waist_right_front_Object01) for T = 306.201
    areaAverage(waist_right_front_Object01) for X = 3.49364e-05
    areaAverage(waist_right_front_Object01) for p = 100040
    areaAverage(waist_right_front_Object01) for Qr = -22.2927

faceSource femur_left_back_O output:
    areaAverage(femur_left_back_Object01) for T = 306.744
    areaAverage(femur_left_back_Object01) for X = 2.26554e-05
    areaAverage(femur_left_back_Object01) for p = 100041
    areaAverage(femur_left_back_Object01) for Qr = -17.3545

faceSource femur_left_front_O output:
    areaAverage(femur_left_front_Object01) for T = 306.437
    areaAverage(femur_left_front_Object01) for X = 2.28013e-05
    areaAverage(femur_left_front_Object01) for p = 100040
    areaAverage(femur_left_front_Object01) for Qr = -21.6622

faceSource femur_right_back_O output:
    areaAverage(femur_right_back_Object01) for T = 306.693
    areaAverage(femur_right_back_Object01) for X = 2.24004e-05
    areaAverage(femur_right_back_Object01) for p = 100041
    areaAverage(femur_right_back_Object01) for Qr = -16.6768

faceSource femur_right_front_O output:
    areaAverage(femur_right_front_Object01) for T = 306.399
    areaAverage(femur_right_front_Object01) for X = 2.23548e-05
    areaAverage(femur_right_front_Object01) for p = 100040
    areaAverage(femur_right_front_Object01) for Qr = -21.1495

faceSource lowerleg_left_back_O output:
    areaAverage(lowerleg_left_back_Object01) for T = 306.359
    areaAverage(lowerleg_left_back_Object01) for X = 2.02054e-05
    areaAverage(lowerleg_left_back_Object01) for p = 100041
    areaAverage(lowerleg_left_back_Object01) for Qr = -18.4843

faceSource lowerleg_left_front_O output:
    areaAverage(lowerleg_left_front_Object01) for T = 306.53
    areaAverage(lowerleg_left_front_Object01) for X = 2.02473e-05
    areaAverage(lowerleg_left_front_Object01) for p = 100040
    areaAverage(lowerleg_left_front_Object01) for Qr = -25.0804

faceSource lowerleg_right_back_O output:
    areaAverage(lowerleg_right_back_Object01) for T = 307.217
    areaAverage(lowerleg_right_back_Object01) for X = 2.02403e-05
    areaAverage(lowerleg_right_back_Object01) for p = 100041
    areaAverage(lowerleg_right_back_Object01) for Qr = -22.467

faceSource lowerleg_right_front_O output:
    areaAverage(lowerleg_right_front_Object01) for T = 305.989
    areaAverage(lowerleg_right_front_Object01) for X = 2.01896e-05
    areaAverage(lowerleg_right_front_Object01) for p = 100041
    areaAverage(lowerleg_right_front_Object01) for Qr = -21.6732

faceSource upperarm_left_back_O output:
    areaAverage(upperarm_left_back_Object01) for T = 309.243
    areaAverage(upperarm_left_back_Object01) for X = 2.33207e-05
    areaAverage(upperarm_left_back_Object01) for p = 100041
    areaAverage(upperarm_left_back_Object01) for Qr = -32.5786

faceSource upperarm_left_front_O output:
    areaAverage(upperarm_left_front_Object01) for T = 311.621
    areaAverage(upperarm_left_front_Object01) for X = 2.31702e-05
    areaAverage(upperarm_left_front_Object01) for p = 100041
    areaAverage(upperarm_left_front_Object01) for Qr = -45.831

faceSource upperarm_right_back_O output:
    areaAverage(upperarm_right_back_Object01) for T = 309.276
    areaAverage(upperarm_right_back_Object01) for X = 2.33724e-05
    areaAverage(upperarm_right_back_Object01) for p = 100041
    areaAverage(upperarm_right_back_Object01) for Qr = -32.8657

faceSource upperarm_right_front_O output:
    areaAverage(upperarm_right_front_Object01) for T = 311.205
    areaAverage(upperarm_right_front_Object01) for X = 2.35067e-05
    areaAverage(upperarm_right_front_Object01) for p = 100041
    areaAverage(upperarm_right_front_Object01) for Qr = -43.7983

faceSource forearm_left_back_O output:
    areaAverage(forearm_left_back_Object01) for T = 309.235
    areaAverage(forearm_left_back_Object01) for X = 2.31771e-05
    areaAverage(forearm_left_back_Object01) for p = 100041
    areaAverage(forearm_left_back_Object01) for Qr = -33.2056

faceSource forearm_left_front_O output:
    areaAverage(forearm_left_front_Object01) for T = 310.352
    areaAverage(forearm_left_front_Object01) for X = 2.34675e-05
    areaAverage(forearm_left_front_Object01) for p = 100041
    areaAverage(forearm_left_front_Object01) for Qr = -39.8768

faceSource forearm_right_back_O output:
    areaAverage(forearm_right_back_Object01) for T = 309.551
    areaAverage(forearm_right_back_Object01) for X = 2.23206e-05
    areaAverage(forearm_right_back_Object01) for p = 100041
    areaAverage(forearm_right_back_Object01) for Qr = -35.5089

faceSource forearm_right_front_O output:
    areaAverage(forearm_right_front_Object01) for T = 310.269
    areaAverage(forearm_right_front_Object01) for X = 2.21841e-05
    areaAverage(forearm_right_front_Object01) for p = 100041
    areaAverage(forearm_right_front_Object01) for Qr = -39.969

faceSource foot_left_O output:
    areaAverage(foot_left_Object01) for T = 309.112
    areaAverage(foot_left_Object01) for X = 1.89541e-05
    areaAverage(foot_left_Object01) for p = 100040
    areaAverage(foot_left_Object01) for Qr = -38.514

faceSource foot_right_O output:
    areaAverage(foot_right_Object01) for T = 309.2
    areaAverage(foot_right_Object01) for X = 1.90766e-05
    areaAverage(foot_right_Object01) for p = 100040
    areaAverage(foot_right_Object01) for Qr = -38.8556

faceSource hand_left_O output:
    areaAverage(hand_left_Object01) for T = 311.158
    areaAverage(hand_left_Object01) for X = 2.78045e-05
    areaAverage(hand_left_Object01) for p = 100041
    areaAverage(hand_left_Object01) for Qr = -44.7463

faceSource hand_right_O output:
    areaAverage(hand_right_Object01) for T = 311.401
    areaAverage(hand_right_Object01) for X = 2.70059e-05
    areaAverage(hand_right_Object01) for p = 100041
    areaAverage(hand_right_Object01) for Qr = -46.3086

faceSource neck_back_O output:
    areaAverage(neck_back_Object01) for T = 309.293
    areaAverage(neck_back_Object01) for X = 3.43183e-05
    areaAverage(neck_back_Object01) for p = 100041
    areaAverage(neck_back_Object01) for Qr = -35.7688

faceSource neck_front_O output:
    areaAverage(neck_front_Object01) for T = 310.754
    areaAverage(neck_front_Object01) for X = 3.43399e-05
    areaAverage(neck_front_Object01) for p = 100040
    areaAverage(neck_front_Object01) for Qr = -43.2542

faceSource face_O output:
    areaAverage(face_Object01) for T = 309.206
    areaAverage(face_Object01) for X = 4.27974e-05
    areaAverage(face_Object01) for p = 100039
    areaAverage(face_Object01) for Qr = -38

faceSource head_O output:
    areaAverage(head_Object01) for T = 307.706
    areaAverage(head_Object01) for X = 4.27095e-05
    areaAverage(head_Object01) for p = 100041
    areaAverage(head_Object01) for Qr = -29.9186

faceSource floor output:
    areaAverage(floor) for T = 300.776
    areaAverage(floor) for X = 0
    areaAverage(floor) for p = 100046
    areaAverage(floor) for Qr = 4.64395

faceSource ceiling output:
    areaAverage(ceiling) for T = 301.099
    areaAverage(ceiling) for X = 0
    areaAverage(ceiling) for p = 100019
    areaAverage(ceiling) for Qr = 1.80323

faceSource north output:
    areaAverage(north) for T = 301.389
    areaAverage(north) for X = 0
    areaAverage(north) for p = 100032
    areaAverage(north) for Qr = -0.395856

faceSource south output:
    areaAverage(south) for T = 301.097
    areaAverage(south) for X = 0
    areaAverage(south) for p = 100033
    areaAverage(south) for Qr = 2.11841

faceSource east output:
    areaAverage(east) for T = 301.132
    areaAverage(east) for X = 0
    areaAverage(east) for p = 100033
    areaAverage(east) for Qr = 1.23965

faceSource west output:
    areaAverage(west) for T = 301.092
    areaAverage(west) for X = 0
    areaAverage(west) for p = 100033
    areaAverage(west) for Qr = 1.00238

cellSource w_internal_T output:
    volAverage(w_internal_T) for T = 301.128
    volAverage(w_internal_T) for X = 0.0123677
    volAverage(w_internal_T) for p = 100032
    volAverage(w_internal_T) for Qr = 0


    0.06   36.78   34.24   36.34
   41.54   25.13    5.56   72.23   70.00   11.77   -2.23
    0.12   36.78   34.23   36.34
   41.49   28.65    6.16   76.29   70.00   -6.32   -6.29
    0.19   36.78   34.23   36.34
   41.45   28.31    6.15   75.92   70.00   -5.93   -5.92
    0.25   36.78   34.22   36.34
   41.43   28.09    6.15   75.66   70.00   -5.68   -5.66
end
