/*---------------------------------------------------------------------------*\
| =========                 |                                                 |
| \\      /  F ield         | OpenFOAM: The Open Source CFD Toolbox           |
|  \\    /   O peration     | Version:  2.2.x                                 |
|   \\  /    A nd           | Web:      www.OpenFOAM.org                      |
|    \\/     M anipulation  |                                                 |
\*---------------------------------------------------------------------------*/
Build  : 2.2.x-1ef4d132e582
Exec   : setSet -constant
Date   : Dec 13 2017
Time   : 15:27:29
Host   : "queen01"
PID    : 5253
Case   : /home/tyou/OpenFOAM/tyou-2.2.x/run/test13b
nProcs : 1
sigFpe : Enabling floating point exception trapping (FOAM_SIGFPE).
fileModificationChecking : Monitoring run-time modified files using timeStampMaster
allowSystemOperations : Disallowing user-supplied system call operations

// * * * * * * * * * * * * * * * * * * * * * * * * * * * * * * * * * * * * * //
Create time

Create polyMesh for time = constant

Time:constant  cells:66361  faces:208054  points:75539  patches:41  bb:(0 1.62 -2) (4 4.02 2)
cellSets:
	refinedCells	size:26112
	refineCell1	size:3264
	refineCell2	size:1512
faceSets:
	outlet	size:189
	inlet	size:270

Time = constant
    mesh not changed.
Please type 'help', 'quit' or a set command after prompt.
Command>Command>    Set:back_left_T  Size:0  Action:new
    Adding cells with center within boxes 1((1.779 3.499 1.039) (2.001 3.641 1.461))
    Writing back_left_T (size 419) to "constant/polyMesh/sets/back_left_T" and to vtk file "VTK/back_left_T/back_left_T_0.vtk"

Command>    Set:back_left_T  Size:0  Action:new
    Adding all cells from cellSet back_left_T ...
    Writing back_left_T (size 419) to "constant/polyMesh/sets/back_left_T" and to vtk file "VTK/back_left_T/back_left_T_0.vtk"

Command>Command>    Set:back_right_T  Size:0  Action:new
    Adding cells with center within boxes 1((1.599 3.499 1.039) (1.821 3.641 1.461))
    Writing back_right_T (size 419) to "constant/polyMesh/sets/back_right_T" and to vtk file "VTK/back_right_T/back_right_T_0.vtk"

Command>    Set:back_right_T  Size:0  Action:new
    Adding all cells from cellSet back_right_T ...
    Writing back_right_T (size 419) to "constant/polyMesh/sets/back_right_T" and to vtk file "VTK/back_right_T/back_right_T_0.vtk"

Command>Command>    Set:chest_left_T  Size:0  Action:new
    Adding cells with center within boxes 1((1.759 3.359 1.019) (2.001 3.601 1.461))
    Writing chest_left_T (size 883) to "constant/polyMesh/sets/chest_left_T" and to vtk file "VTK/chest_left_T/chest_left_T_0.vtk"

Command>    Set:chest_left_T  Size:0  Action:new
    Adding all cells from cellSet chest_left_T ...
    Writing chest_left_T (size 883) to "constant/polyMesh/sets/chest_left_T" and to vtk file "VTK/chest_left_T/chest_left_T_0.vtk"

Command>Command>    Set:chest_right_T  Size:0  Action:new
    Adding cells with center within boxes 1((1.599 3.359 1.019) (1.821 3.601 1.461))
    Writing chest_right_T (size 826) to "constant/polyMesh/sets/chest_right_T" and to vtk file "VTK/chest_right_T/chest_right_T_0.vtk"

Command>    Set:chest_right_T  Size:0  Action:new
    Adding all cells from cellSet chest_right_T ...
    Writing chest_right_T (size 826) to "constant/polyMesh/sets/chest_right_T" and to vtk file "VTK/chest_right_T/chest_right_T_0.vtk"

Command>Command>    Set:waist_left_back_T  Size:0  Action:new
    Adding cells with center within boxes 1((1.779 3.499 0.759) (1.961 3.681 1.121))
    Writing waist_left_back_T (size 298) to "constant/polyMesh/sets/waist_left_back_T" and to vtk file "VTK/waist_left_back_T/waist_left_back_T_0.vtk"

Command>    Set:waist_left_back_T  Size:0  Action:new
    Adding all cells from cellSet waist_left_back_T ...
    Writing waist_left_back_T (size 298) to "constant/polyMesh/sets/waist_left_back_T" and to vtk file "VTK/waist_left_back_T/waist_left_back_T_0.vtk"

Command>Command>    Set:waist_left_front_T  Size:0  Action:new
    Adding cells with center within boxes 1((1.779 3.399 0.759) (1.961 3.581 1.121))
    Writing waist_left_front_T (size 355) to "constant/polyMesh/sets/waist_left_front_T" and to vtk file "VTK/waist_left_front_T/waist_left_front_T_0.vtk"

Command>    Set:waist_left_front_T  Size:0  Action:new
    Adding all cells from cellSet waist_left_front_T ...
    Writing waist_left_front_T (size 355) to "constant/polyMesh/sets/waist_left_front_T" and to vtk file "VTK/waist_left_front_T/waist_left_front_T_0.vtk"

Command>Command>    Set:waist_right_back_T  Size:0  Action:new
    Adding cells with center within boxes 1((1.639 3.499 0.759) (1.809 3.681 1.121))
    Writing waist_right_back_T (size 263) to "constant/polyMesh/sets/waist_right_back_T" and to vtk file "VTK/waist_right_back_T/waist_right_back_T_0.vtk"

Command>    Set:waist_right_back_T  Size:0  Action:new
    Adding all cells from cellSet waist_right_back_T ...
    Writing waist_right_back_T (size 263) to "constant/polyMesh/sets/waist_right_back_T" and to vtk file "VTK/waist_right_back_T/waist_right_back_T_0.vtk"

Command>Command>    Set:waist_right_front_T  Size:0  Action:new
    Adding cells with center within boxes 1((1.639 3.399 0.759) (1.809 3.581 1.121))
    Writing waist_right_front_T (size 327) to "constant/polyMesh/sets/waist_right_front_T" and to vtk file "VTK/waist_right_front_T/waist_right_front_T_0.vtk"

Command>    Set:waist_right_front_T  Size:0  Action:new
    Adding all cells from cellSet waist_right_front_T ...
    Writing waist_right_front_T (size 327) to "constant/polyMesh/sets/waist_right_front_T" and to vtk file "VTK/waist_right_front_T/waist_right_front_T_0.vtk"

Command>Command>    Set:femur_left_back_T  Size:0  Action:new
    Adding cells with center within boxes 1((1.779 3.519 0.499) (2.001 3.661 1.021))
    Writing femur_left_back_T (size 619) to "constant/polyMesh/sets/femur_left_back_T" and to vtk file "VTK/femur_left_back_T/femur_left_back_T_0.vtk"

Command>    Set:femur_left_back_T  Size:0  Action:new
    Adding all cells from cellSet femur_left_back_T ...
    Writing femur_left_back_T (size 619) to "constant/polyMesh/sets/femur_left_back_T" and to vtk file "VTK/femur_left_back_T/femur_left_back_T_0.vtk"

Command>Command>    Set:femur_left_front_T  Size:0  Action:new
    Adding cells with center within boxes 1((1.779 3.439 0.499) (2.001 3.581 1.0211))
    Writing femur_left_front_T (size 521) to "constant/polyMesh/sets/femur_left_front_T" and to vtk file "VTK/femur_left_front_T/femur_left_front_T_0.vtk"

Command>    Set:femur_left_front_T  Size:0  Action:new
    Adding all cells from cellSet femur_left_front_T ...
    Writing femur_left_front_T (size 521) to "constant/polyMesh/sets/femur_left_front_T" and to vtk file "VTK/femur_left_front_T/femur_left_front_T_0.vtk"

Command>Command>    Set:femur_right_back_T  Size:0  Action:new
    Adding cells with center within boxes 1((1.599 3.519 0.499) (1.801 3.661 1.021))
    Writing femur_right_back_T (size 540) to "constant/polyMesh/sets/femur_right_back_T" and to vtk file "VTK/femur_right_back_T/femur_right_back_T_0.vtk"

Command>    Set:femur_right_back_T  Size:0  Action:new
    Adding all cells from cellSet femur_right_back_T ...
    Writing femur_right_back_T (size 540) to "constant/polyMesh/sets/femur_right_back_T" and to vtk file "VTK/femur_right_back_T/femur_right_back_T_0.vtk"

Command>Command>    Set:femur_right_front_T  Size:0  Action:new
    Adding cells with center within boxes 1((1.599 3.439 0.499) (1.801 3.581 1.021))
    Writing femur_right_front_T (size 453) to "constant/polyMesh/sets/femur_right_front_T" and to vtk file "VTK/femur_right_front_T/femur_right_front_T_0.vtk"

Command>    Set:femur_right_front_T  Size:0  Action:new
    Adding all cells from cellSet femur_right_front_T ...
    Writing femur_right_front_T (size 453) to "constant/polyMesh/sets/femur_right_front_T" and to vtk file "VTK/femur_right_front_T/femur_right_front_T_0.vtk"

Command>Command>    Set:lowerleg_left_back_T  Size:0  Action:new
    Adding cells with center within boxes 1((1.699 3.539 0.029) (1.901 3.621 0.599))
    Writing lowerleg_left_back_T (size 469) to "constant/polyMesh/sets/lowerleg_left_back_T" and to vtk file "VTK/lowerleg_left_back_T/lowerleg_left_back_T_0.vtk"

Command>    Set:lowerleg_left_back_T  Size:0  Action:new
    Adding all cells from cellSet lowerleg_left_back_T ...
    Writing lowerleg_left_back_T (size 469) to "constant/polyMesh/sets/lowerleg_left_back_T" and to vtk file "VTK/lowerleg_left_back_T/lowerleg_left_back_T_0.vtk"

Command>Command>    Set:lowerleg_left_front_T  Size:0  Action:new
    Adding cells with center within boxes 1((1.839 3.479 0.029) (1.901 3.601 0.599))
    Writing lowerleg_left_front_T (size 192) to "constant/polyMesh/sets/lowerleg_left_front_T" and to vtk file "VTK/lowerleg_left_front_T/lowerleg_left_front_T_0.vtk"

Command>    Set:lowerleg_left_front_T  Size:0  Action:new
    Adding all cells from cellSet lowerleg_left_front_T ...
    Writing lowerleg_left_front_T (size 192) to "constant/polyMesh/sets/lowerleg_left_front_T" and to vtk file "VTK/lowerleg_left_front_T/lowerleg_left_front_T_0.vtk"

Command>Command>    Set:lowerleg_right_back_T  Size:0  Action:new
    Adding cells with center within boxes 1((1.629 3.539 0.029) (1.759 3.621 0.599))
    Writing lowerleg_right_back_T (size 228) to "constant/polyMesh/sets/lowerleg_right_back_T" and to vtk file "VTK/lowerleg_right_back_T/lowerleg_right_back_T_0.vtk"

Command>    Set:lowerleg_right_back_T  Size:0  Action:new
    Adding all cells from cellSet lowerleg_right_back_T ...
    Writing lowerleg_right_back_T (size 228) to "constant/polyMesh/sets/lowerleg_right_back_T" and to vtk file "VTK/lowerleg_right_back_T/lowerleg_right_back_T_0.vtk"

Command>Command>    Set:lowerleg_right_front_T  Size:0  Action:new
    Adding cells with center within boxes 1((1.629 3.479 0.029) (1.759 3.659 0.599))
    Writing lowerleg_right_front_T (size 633) to "constant/polyMesh/sets/lowerleg_right_front_T" and to vtk file "VTK/lowerleg_right_front_T/lowerleg_right_front_T_0.vtk"

Command>    Set:lowerleg_right_front_T  Size:0  Action:new
    Adding all cells from cellSet lowerleg_right_front_T ...
    Writing lowerleg_right_front_T (size 633) to "constant/polyMesh/sets/lowerleg_right_front_T" and to vtk file "VTK/lowerleg_right_front_T/lowerleg_right_front_T_0.vtk"

Command>Command>    Set:upperarm_left_back_T  Size:0  Action:new
    Adding cells with center within boxes 1((1.919 3.519 1.399) (2.081 3.661 1.701))
    Writing upperarm_left_back_T (size 432) to "constant/polyMesh/sets/upperarm_left_back_T" and to vtk file "VTK/upperarm_left_back_T/upperarm_left_back_T_0.vtk"

Command>    Set:upperarm_left_back_T  Size:0  Action:new
    Adding all cells from cellSet upperarm_left_back_T ...
    Writing upperarm_left_back_T (size 432) to "constant/polyMesh/sets/upperarm_left_back_T" and to vtk file "VTK/upperarm_left_back_T/upperarm_left_back_T_0.vtk"

Command>Command>    Set:upperarm_left_front_T  Size:0  Action:new
    Adding cells with center within boxes 1((1.919 3.399 1.399) (2.081 3.601 1.701))
    Writing upperarm_left_front_T (size 576) to "constant/polyMesh/sets/upperarm_left_front_T" and to vtk file "VTK/upperarm_left_front_T/upperarm_left_front_T_0.vtk"

Command>    Set:upperarm_left_front_T  Size:0  Action:new
    Adding all cells from cellSet upperarm_left_front_T ...
    Writing upperarm_left_front_T (size 576) to "constant/polyMesh/sets/upperarm_left_front_T" and to vtk file "VTK/upperarm_left_front_T/upperarm_left_front_T_0.vtk"

Command>Command>    Set:upperarm_right_back_T  Size:0  Action:new
    Adding cells with center within boxes 1((1.699 3.519 1.399) (1.901 3.661 1.701))
    Writing upperarm_right_back_T (size 485) to "constant/polyMesh/sets/upperarm_right_back_T" and to vtk file "VTK/upperarm_right_back_T/upperarm_right_back_T_0.vtk"

Command>    Set:upperarm_right_back_T  Size:0  Action:new
    Adding all cells from cellSet upperarm_right_back_T ...
    Writing upperarm_right_back_T (size 485) to "constant/polyMesh/sets/upperarm_right_back_T" and to vtk file "VTK/upperarm_right_back_T/upperarm_right_back_T_0.vtk"

Command>Command>    Set:upperarm_right_front_T  Size:0  Action:new
    Adding cells with center within boxes 1((1.519 3.499 1.059) (1.681 3.601 1.441))
    Writing upperarm_right_front_T (size 286) to "constant/polyMesh/sets/upperarm_right_front_T" and to vtk file "VTK/upperarm_right_front_T/upperarm_right_front_T_0.vtk"

Command>    Set:upperarm_right_front_T  Size:0  Action:new
    Adding all cells from cellSet upperarm_right_front_T ...
    Writing upperarm_right_front_T (size 286) to "constant/polyMesh/sets/upperarm_right_front_T" and to vtk file "VTK/upperarm_right_front_T/upperarm_right_front_T_0.vtk"

Command>Command>    Set:forearm_left_back_T  Size:0  Action:new
    Adding cells with center within boxes 1((1.999 3.519 0.839) (2.081 3.801 1.131))
    Writing forearm_left_back_T (size 202) to "constant/polyMesh/sets/forearm_left_back_T" and to vtk file "VTK/forearm_left_back_T/forearm_left_back_T_0.vtk"

Command>    Set:forearm_left_back_T  Size:0  Action:new
    Adding all cells from cellSet forearm_left_back_T ...
    Writing forearm_left_back_T (size 202) to "constant/polyMesh/sets/forearm_left_back_T" and to vtk file "VTK/forearm_left_back_T/forearm_left_back_T_0.vtk"

Command>Command>    Set:forearm_left_front_T  Size:0  Action:new
    Adding cells with center within boxes 1((1.999 3.519 0.839) (2.081 3.601 1.131))
    Writing forearm_left_front_T (size 52) to "constant/polyMesh/sets/forearm_left_front_T" and to vtk file "VTK/forearm_left_front_T/forearm_left_front_T_0.vtk"

Command>    Set:forearm_left_front_T  Size:0  Action:new
    Adding all cells from cellSet forearm_left_front_T ...
    Writing forearm_left_front_T (size 52) to "constant/polyMesh/sets/forearm_left_front_T" and to vtk file "VTK/forearm_left_front_T/forearm_left_front_T_0.vtk"

Command>Command>    Set:forearm_right_back_T  Size:0  Action:new
    Adding cells with center within boxes 1((1.519 3.519 0.819) (1.601 3.661 1.131))
    Writing forearm_right_back_T (size 152) to "constant/polyMesh/sets/forearm_right_back_T" and to vtk file "VTK/forearm_right_back_T/forearm_right_back_T_0.vtk"

Command>    Set:forearm_right_back_T  Size:0  Action:new
    Adding all cells from cellSet forearm_right_back_T ...
    Writing forearm_right_back_T (size 152) to "constant/polyMesh/sets/forearm_right_back_T" and to vtk file "VTK/forearm_right_back_T/forearm_right_back_T_0.vtk"

Command>Command>    Set:forearm_right_front_T  Size:0  Action:new
    Adding cells with center within boxes 1((1.519 3.499 0.819) (1.601 3.641 1.131))
    Writing forearm_right_front_T (size 152) to "constant/polyMesh/sets/forearm_right_front_T" and to vtk file "VTK/forearm_right_front_T/forearm_right_front_T_0.vtk"

Command>    Set:forearm_right_front_T  Size:0  Action:new
    Adding all cells from cellSet forearm_right_front_T ...
    Writing forearm_right_front_T (size 152) to "constant/polyMesh/sets/forearm_right_front_T" and to vtk file "VTK/forearm_right_front_T/forearm_right_front_T_0.vtk"

Command>Command>    Set:foot_left_T  Size:0  Action:new
    Adding cells with center within boxes 1((1.859 3.359 -0.001) (1.961 3.621 0.121))
    Writing foot_left_T (size 169) to "constant/polyMesh/sets/foot_left_T" and to vtk file "VTK/foot_left_T/foot_left_T_0.vtk"

Command>    Set:foot_left_T  Size:0  Action:new
    Adding all cells from cellSet foot_left_T ...
    Writing foot_left_T (size 169) to "constant/polyMesh/sets/foot_left_T" and to vtk file "VTK/foot_left_T/foot_left_T_0.vtk"

Command>Command>    Set:foot_right_T  Size:0  Action:new
    Adding cells with center within boxes 1((1.639 3.359 -0.001) (1.721 3.621 0.121))
    Writing foot_right_T (size 119) to "constant/polyMesh/sets/foot_right_T" and to vtk file "VTK/foot_right_T/foot_right_T_0.vtk"

Command>    Set:foot_right_T  Size:0  Action:new
    Adding all cells from cellSet foot_right_T ...
    Writing foot_right_T (size 119) to "constant/polyMesh/sets/foot_right_T" and to vtk file "VTK/foot_right_T/foot_right_T_0.vtk"

Command>Command>    Set:hand_left_T  Size:0  Action:new
    Adding cells with center within boxes 1((1.999 3.479 0.639) (2.061 3.601 0.901))
    Writing hand_left_T (size 105) to "constant/polyMesh/sets/hand_left_T" and to vtk file "VTK/hand_left_T/hand_left_T_0.vtk"

Command>    Set:hand_left_T  Size:0  Action:new
    Adding all cells from cellSet hand_left_T ...
    Writing hand_left_T (size 105) to "constant/polyMesh/sets/hand_left_T" and to vtk file "VTK/hand_left_T/hand_left_T_0.vtk"

Command>Command>    Set:hand_right_T  Size:0  Action:new
    Adding cells with center within boxes 1((1.539 3.479 0.639) (1.601 3.601 0.901))
    Writing hand_right_T (size 105) to "constant/polyMesh/sets/hand_right_T" and to vtk file "VTK/hand_right_T/hand_right_T_0.vtk"

Command>    Set:hand_right_T  Size:0  Action:new
    Adding all cells from cellSet hand_right_T ...
    Writing hand_right_T (size 105) to "constant/polyMesh/sets/hand_right_T" and to vtk file "VTK/hand_right_T/hand_right_T_0.vtk"

Command>Command>    Set:neck_back_T  Size:0  Action:new
    Adding cells with center within boxes 1((1.739 3.499 1.399) (1.901 3.601 1.501))
    Writing neck_back_T (size 61) to "constant/polyMesh/sets/neck_back_T" and to vtk file "VTK/neck_back_T/neck_back_T_0.vtk"

Command>    Set:neck_back_T  Size:0  Action:new
    Adding all cells from cellSet neck_back_T ...
    Writing neck_back_T (size 61) to "constant/polyMesh/sets/neck_back_T" and to vtk file "VTK/neck_back_T/neck_back_T_0.vtk"

Command>Command>    Set:neck_front_T  Size:0  Action:new
    Adding cells with center within boxes 1((1.739 3.459 1.399) (1.861 3.541 1.501))
    Writing neck_front_T (size 49) to "constant/polyMesh/sets/neck_front_T" and to vtk file "VTK/neck_front_T/neck_front_T_0.vtk"

Command>    Set:neck_front_T  Size:0  Action:new
    Adding all cells from cellSet neck_front_T ...
    Writing neck_front_T (size 49) to "constant/polyMesh/sets/neck_front_T" and to vtk file "VTK/neck_front_T/neck_front_T_0.vtk"

Command>Command>    Set:face_T  Size:0  Action:new
    Adding cells with center within boxes 1((1.699 3.399 1.419) (1.901 3.501 1.661))
    Writing face_T (size 209) to "constant/polyMesh/sets/face_T" and to vtk file "VTK/face_T/face_T_0.vtk"

Command>    Set:face_T  Size:0  Action:new
    Adding all cells from cellSet face_T ...
    Writing face_T (size 209) to "constant/polyMesh/sets/face_T" and to vtk file "VTK/face_T/face_T_0.vtk"

Command>Command>    Set:head_T  Size:0  Action:new
    Adding cells with center within boxes 1((1.699 3.399 1.419) (1.901 3.601 1.661))
    Writing head_T (size 391) to "constant/polyMesh/sets/head_T" and to vtk file "VTK/head_T/head_T_0.vtk"

Command>    Set:head_T  Size:0  Action:new
    Adding all cells from cellSet head_T ...
    Writing head_T (size 391) to "constant/polyMesh/sets/head_T" and to vtk file "VTK/head_T/head_T_0.vtk"

Command>Command>    Set:w_internal_T  Size:0  Action:new
    Adding cells with center within boxes 1((-0.001 1.619 -2.001) (4.001 4.021 1.801))
    Writing w_internal_T (size 64441) to "constant/polyMesh/sets/w_internal_T" and to vtk file "VTK/w_internal_T/w_internal_T_0.vtk"

Command>    Set:w_internal_T  Size:0  Action:new
    Adding all cells from cellSet w_internal_T ...
    Writing w_internal_T (size 64441) to "constant/polyMesh/sets/w_internal_T" and to vtk file "VTK/w_internal_T/w_internal_T_0.vtk"

Command>Command>Command>Quitting ...

End

