/*---------------------------------------------------------------------------*\
| =========                 |                                                 |
| \\      /  F ield         | OpenFOAM: The Open Source CFD Toolbox           |
|  \\    /   O peration     | Version:  2.2.x                                 |
|   \\  /    A nd           | Web:      www.OpenFOAM.org                      |
|    \\/     M anipulation  |                                                 |
\*---------------------------------------------------------------------------*/
Build  : 2.2.x-1ef4d132e582
Exec   : blockMesh
Date   : Dec 13 2017
Time   : 15:27:15
Host   : "queen01"
PID    : 5244
Case   : /home/tyou/OpenFOAM/tyou-2.2.x/run/test13b
nProcs : 1
sigFpe : Enabling floating point exception trapping (FOAM_SIGFPE).
fileModificationChecking : Monitoring run-time modified files using timeStampMaster
allowSystemOperations : Disallowing user-supplied system call operations

// * * * * * * * * * * * * * * * * * * * * * * * * * * * * * * * * * * * * * //
Create time

Creating block mesh from
    "/home/tyou/OpenFOAM/tyou-2.2.x/run/test13b/constant/polyMesh/blockMeshDict"
Creating curved edges
Creating topology blocks
Creating topology patches

Creating block mesh topology

Check topology

	Basic statistics
		Number of internal faces : 0
		Number of boundary faces : 6
		Number of defined boundary faces : 6
		Number of undefined boundary faces : 0
	Checking patch -> block consistency

Creating block offsets
Creating merge list .

Creating polyMesh from blockMesh
Creating patches
Creating cells
Creating points with scale 1

Writing polyMesh
----------------
Mesh Information
----------------
  boundingBox: (0 1.62 -2) (4 4.02 2)
  nPoints: 42025
  nCells: 38400
  nFaces: 118720
  nInternalFaces: 111680
----------------
Patches
----------------
  patch 0 (start: 111680 size: 1600) name: floor
  patch 1 (start: 113280 size: 1600) name: ceiling
  patch 2 (start: 114880 size: 960) name: north
  patch 3 (start: 115840 size: 960) name: south
  patch 4 (start: 116800 size: 960) name: east
  patch 5 (start: 117760 size: 960) name: west

End

